@<TRIPOS>MOLECULE
CWS
   21    22     1     0     0
SMALL
bcc


@<TRIPOS>ATOM
      1 N1         -0.0130    0.0840   -0.0610 nb        1 CWS     -0.722000
      2 C2          1.3190    0.0730   -0.0130 ca        1 CWS      0.672900
      3 N3          2.1340    0.0230    1.0900 nb        1 CWS     -0.787000
      4 C4          1.5160    0.0040    2.2980 ca        1 CWS      0.698200
      5 C5         -0.6570   -0.0070    3.6150 ca        1 CWS     -0.094000
      6 C6         -2.0380   -0.0000    3.6310 ca        1 CWS     -0.091300
      7 C7         -2.7520    0.0290    2.4070 ca        1 CWS     -0.103000
      8 C8         -2.0940    0.0550    1.2040 ca        1 CWS     -0.178300
      9 C4A         0.0540    0.0120    2.3950 ca        1 CWS     -0.290600
     10 C8A        -0.6640    0.0510    1.1590 ca        1 CWS      0.436600
     11 C11        -2.7950   -0.0190    4.9040 c3        1 CWS     -0.053800
     12 NA4         2.2880    0.0350    3.4480 nv        1 CWS     -0.945500
     13 H2          1.8580    0.1000   -0.9840 h5        1 CWS      0.051100
     14 HA41        3.2700   -0.0950    3.3560 hn        1 CWS      0.425800
     15 HA42        1.8740   -0.3080    4.2790 hn        1 CWS      0.425800
     16 H5         -0.1190   -0.0170    4.5750 ha        1 CWS      0.127000
     17 H7         -3.8530    0.0320    2.4390 ha        1 CWS      0.137000
     18 H111       -3.4300    0.8990    4.9870 hc        1 CWS      0.046033
     19 H112       -2.1120   -0.0560    5.7870 hc        1 CWS      0.046033
     20 H113       -3.4680   -0.9120    4.9400 hc        1 CWS      0.046033
     21 H8         -2.6540    0.0810    0.2560 ha        1 CWS      0.154000
@<TRIPOS>BOND
     1    1    2 ar  
     2    1   10 ar  
     3    2    3 ar  
     4    2   13 1   
     5    3    4 ar  
     6    4    9 ar  
     7    4   12 1   
     8    5    6 ar  
     9    5    9 ar  
    10    5   16 1   
    11    6    7 ar  
    12    6   11 1   
    13    7    8 ar  
    14    7   17 1   
    15    8   10 ar  
    16    8   21 1   
    17    9   10 ar  
    18   11   18 1   
    19   11   19 1   
    20   11   20 1   
    21   12   14 1   
    22   12   15 1   
@<TRIPOS>SUBSTRUCTURE
     1 CWS         1 TEMP              0 ****  ****    0 ROOT
