@<TRIPOS>MOLECULE
CWS
   22    23     1     0     0
SMALL
bcc


@<TRIPOS>ATOM
      1 N1         -0.0250    0.0550   -0.0730 nb        1 CWS     -0.602000
      2 C2          1.3100    0.0210   -0.0560 ca        1 CWS      0.654900
      3 N3          2.1200   -0.0240    1.0610 nb        1 CWS     -0.663000
      4 C4          1.4850   -0.0340    2.2400 ca        1 CWS      0.493200
      5 C5         -0.6440   -0.0110    3.6120 ca        1 CWS     -0.173000
      6 C6         -2.0230    0.0230    3.6340 ca        1 CWS      0.009700
      7 C7         -2.7480    0.0680    2.4080 ca        1 CWS     -0.096000
      8 C8         -2.1060    0.0790    1.1990 ca        1 CWS     -0.137300
      9 C4A         0.0560   -0.0020    2.3840 ca        1 CWS     -0.227600
     10 C8A        -0.6720    0.0440    1.1400 ca        1 CWS      0.425600
     11 C11        -2.7790    0.0140    4.9060 c3        1 CWS     -0.081800
     12 NA4         2.3250   -0.0820    3.4580 n4        1 CWS     -0.827300
     13 H2          1.8490    0.0290   -1.0310 h5        1 CWS      0.101100
     14 HA41        2.1270    0.7490    4.0260 hn        1 CWS      0.474800
     15 HA42        2.0850   -0.9270    3.9890 hn        1 CWS      0.474800
     16 H5         -0.0990   -0.0460    4.5670 ha        1 CWS      0.125000
     17 H7         -3.8510    0.0950    2.4520 ha        1 CWS      0.173000
     18 H111       -3.4120    0.9350    4.9820 hc        1 CWS      0.071700
     19 H112       -2.1000   -0.0230    5.7930 hc        1 CWS      0.071700
     20 H113       -3.4580   -0.8770    4.9420 hc        1 CWS      0.071700
     21 H8         -2.6740    0.1140    0.2510 ha        1 CWS      0.187000
     22 HA43        3.3270   -0.1020    3.2190 hn        1 CWS      0.474800
@<TRIPOS>BOND
     1    1    2 ar  
     2    1   10 ar  
     3    2    3 ar  
     4    2   13 1   
     5    3    4 ar  
     6    4    9 ar  
     7    4   12 1   
     8    5    6 ar  
     9    5    9 ar  
    10    5   16 1   
    11    6    7 ar  
    12    6   11 1   
    13    7    8 ar  
    14    7   17 1   
    15    8   10 ar  
    16    8   21 1   
    17    9   10 ar  
    18   11   18 1   
    19   11   19 1   
    20   11   20 1   
    21   12   14 1   
    22   12   15 1   
    23   12   22 1   
@<TRIPOS>SUBSTRUCTURE
     1 CWS         1 TEMP              0 ****  ****    0 ROOT
