@<TRIPOS>MOLECULE
CWS
   21    22     1     0     0
SMALL
bcc


@<TRIPOS>ATOM
      1 N1         -0.0050    0.0760   -0.0600 nb        1 CWS     -0.722000
      2 C2          1.3260    0.0690   -0.0090 ca        1 CWS      0.672900
      3 N3          2.1390    0.0260    1.0980 nb        1 CWS     -0.787000
      4 C4          1.5180    0.0090    2.3040 ca        1 CWS      0.698200
      5 C5         -0.6590   -0.0040    3.6140 ca        1 CWS     -0.094000
      6 C6         -2.0400   -0.0020    3.6270 ca        1 CWS     -0.091300
      7 C7         -2.7510    0.0210    2.4000 ca        1 CWS     -0.103000
      8 C8         -2.0900    0.0450    1.1990 ca        1 CWS     -0.178300
      9 C4A         0.0560    0.0130    2.3960 ca        1 CWS     -0.290600
     10 C8A        -0.6600    0.0450    1.1590 ca        1 CWS      0.436600
     11 C11        -2.8010   -0.0180    4.8970 c3        1 CWS     -0.053800
     12 NA4         2.2860    0.0470    3.4550 nh        1 CWS     -0.945500
     13 H2          1.8690    0.0940   -0.9780 h5        1 CWS      0.051100
     14 HA41        1.8700   -0.2950    4.2870 hn        1 CWS      0.425800
     15 HA42        3.2680   -0.0810    3.3670 hn        1 CWS      0.425800
     16 H5         -0.1240   -0.0090    4.5760 ha        1 CWS      0.127000
     17 H7         -3.8520    0.0210    2.4290 ha        1 CWS      0.137000
     18 H111       -2.1210   -0.0550    5.7820 hc        1 CWS      0.046033
     19 H112       -3.4750   -0.9100    4.9320 hc        1 CWS      0.046033
     20 H113       -3.4350    0.9010    4.9780 hc        1 CWS      0.046033
     21 H8         -2.6470    0.0660    0.2490 ha        1 CWS      0.154000
@<TRIPOS>BOND
     1    1    2 ar  
     2    1   10 ar  
     3    2    3 ar  
     4    2   13 1   
     5    3    4 ar  
     6    4    9 ar  
     7    4   12 1   
     8    5    6 ar  
     9    5    9 ar  
    10    5   16 1   
    11    6    7 ar  
    12    6   11 1   
    13    7    8 ar  
    14    7   17 1   
    15    8   10 ar  
    16    8   21 1   
    17    9   10 ar  
    18   11   18 1   
    19   11   19 1   
    20   11   20 1   
    21   12   14 1   
    22   12   15 1   
@<TRIPOS>SUBSTRUCTURE
     1 CWS         1 TEMP              0 ****  ****    0 ROOT
