@<TRIPOS>MOLECULE
CWS
   21    22     1     0     0
SMALL
bcc


@<TRIPOS>ATOM
      1 N1         -1.4570   -1.7670    0.0410 nb        1 CWS     -0.722000
      2 C2         -2.5530   -1.0090    0.0250 ca        1 CWS      0.672900
      3 N3         -2.6440    0.3600   -0.0130 nb        1 CWS     -0.787000
      4 C4         -1.4730    1.0450   -0.0130 ca        1 CWS      0.698200
      5 C5          1.0670    0.9830    0.0030 ca        1 CWS     -0.094000
      6 C6          2.2390    0.2530    0.0160 ca        1 CWS     -0.091300
      7 C7          2.1800   -1.1640    0.0310 ca        1 CWS     -0.103000
      8 C8          0.9780   -1.8230    0.0380 ca        1 CWS     -0.178300
      9 C4A        -0.1900    0.3380    0.0030 ca        1 CWS     -0.290600
     10 C8A        -0.2510   -1.0900    0.0270 ca        1 CWS      0.436600
     11 C11         3.5630    0.9160    0.0180 c3        1 CWS     -0.053800
     12 NA4        -1.5040    2.4290    0.0310 nh        1 CWS     -0.945500
     13 H2         -3.5310   -1.5360    0.0360 h5        1 CWS      0.051100
     14 HA41       -2.3790    2.8820   -0.1040 hn        1 CWS      0.425800
     15 HA42       -0.7030    2.9090   -0.2990 hn        1 CWS      0.425800
     16 H5          1.1320    2.0810    0.0040 ha        1 CWS      0.127000
     17 H7          3.1250   -1.7310    0.0400 ha        1 CWS      0.137000
     18 H111        4.1350    0.6310    0.9370 hc        1 CWS      0.046033
     19 H112        4.1570    0.5960   -0.8750 hc        1 CWS      0.046033
     20 H113        3.4640    2.0290   -0.0040 hc        1 CWS      0.046033
     21 H8          0.9380   -2.9240    0.0540 ha        1 CWS      0.154000
@<TRIPOS>BOND
     1    1    2 ar  
     2    1   10 ar  
     3    2    3 ar  
     4    2   13 1   
     5    3    4 ar  
     6    4    9 ar  
     7    4   12 1   
     8    5    6 ar  
     9    5    9 ar  
    10    5   16 1   
    11    6    7 ar  
    12    6   11 1   
    13    7    8 ar  
    14    7   17 1   
    15    8   10 ar  
    16    8   21 1   
    17    9   10 ar  
    18   11   18 1   
    19   11   19 1   
    20   11   20 1   
    21   12   14 1   
    22   12   15 1   
@<TRIPOS>SUBSTRUCTURE
     1 CWS         1 TEMP              0 ****  ****    0 ROOT
