@<TRIPOS>MOLECULE
CWT
   38    36     1     0     0
SMALL
bcc


@<TRIPOS>ATOM
      1 CAA         1.7020    1.9900   -4.8600 c3        1 CWT     -0.232500
      2 CAE        -0.4250    3.0960   -4.2760 c3        1 CWT     -0.232500
      3 CAF         0.4880    1.9300   -3.9660 c3        1 CWT      0.001000
      4 NAG         0.8970    1.9960   -2.6040 n3        1 CWT     -0.258000
      5 CAH         0.7800    0.8010   -1.7390 c2        1 CWT      0.184000
      6 NAI        -0.4040    0.2940   -1.4750 n1        1 CWT     -0.226000
      7 CAJ        -0.4670   -0.3890   -0.3070 c1        1 CWT     -0.097000
      8 CAK         1.0030   -0.2760    0.2770 c2        1 CWT      0.324000
      9 NAL         1.7440    0.5480   -0.7570 n         1 CWT     -0.335000
     10 OAM         1.5100   -1.0350    1.0790 o         1 CWT     -0.304000
     11 CAN        -1.6550   -0.6550    0.4500 c1        1 CWT     -0.032000
     12 CAO        -1.5770   -1.5010    1.7300 c1        1 CWT     -0.064000
     13 CAP        -1.6610   -0.8890    2.9760 c2        1 CWT     -0.071000
     14 CAQ        -1.5520   -1.6560    4.1380 c1        1 CWT      0.004000
     15 CAR        -1.3610   -3.0190    4.0480 c1        1 CWT      0.022000
     16 CAS        -1.2770   -3.6330    2.7930 c1        1 CWT     -0.121000
     17 CAT        -1.3850   -2.8750    1.6430 c1        1 CWT     -0.112000
     18 C21         2.9440    1.3140   -0.5290 c3        1 CWT     -0.068000
     19 OAU        -1.7320   -1.3290    5.5110 os        1 CWT     -0.214000
     20 CAV        -1.4710   -2.4750    6.2640 c3        1 CWT      0.098000
     21 OAW        -1.3090   -3.5420    5.3760 os        1 CWT     -0.217000
     22 HAA1        1.9520    2.9550   -5.0270 hc        1 CWT      0.085000
     23 HAA2        2.4410    1.5360   -4.4330 hc        1 CWT      0.085000
     24 HAA3        1.4960    1.5470   -5.7270 hc        1 CWT      0.085000
     25 HAF         0.0110    1.0900   -4.1210 h1        1 CWT      0.130000
     26 HAE1        0.0330    3.9040   -4.1150 hc        1 CWT      0.085000
     27 HAE2       -0.7010    3.0570   -5.2240 hc        1 CWT      0.085000
     28 HAE3       -1.2000    3.0530   -3.7160 hc        1 CWT      0.085000
     29 HAG         1.2530    2.8030   -2.2530 hn        1 CWT      0.201000
     30 HAN        -2.5350   -0.3260    0.1250 ha        1 CWT      0.150000
     31 H211        3.3810    1.5320   -1.4220 h1        1 CWT      0.090333
     32 H212        3.5690    0.7890    0.0240 h1        1 CWT      0.090333
     33 H213        2.7130    2.1660   -0.0540 h1        1 CWT      0.090333
     34 HAP        -1.8740    0.0900    3.0410 ha        1 CWT      0.172000
     35 HAT        -1.3130   -3.2970    0.7820 ha        1 CWT      0.140000
     36 HAS        -1.1430   -4.5920    2.7300 ha        1 CWT      0.156000
     37 HAV1       -0.6360   -2.3460    6.7720 h2        1 CWT      0.111500
     38 HAV2       -2.2330   -2.6560    6.8460 h2        1 CWT      0.111500
@<TRIPOS>BOND
     1    1    3 1   
     2    1   22 1   
     3    1   23 1   
     4    1   24 1   
     5    2    3 1   
     6    2   26 1   
     7    2   27 1   
     8    2   28 1   
     9    3    4 1   
    10    3   25 1   
    11    4    5 1   
    12    4   29 1   
    13    5    6 1   
    14    5    9 1   
    15    7    8 1   
    16    7   11 1   
    17    8    9 1   
    18    8   10 1   
    19    9   18 1   
    20   11   30 1   
    21   12   13 1   
    22   12   17 1   
    23   13   14 1   
    24   13   34 1   
    25   14   19 1   
    26   15   16 1   
    27   15   21 1   
    28   16   36 1   
    29   17   35 1   
    30   18   31 1   
    31   18   32 1   
    32   18   33 1   
    33   19   20 1   
    34   20   21 1   
    35   20   37 1   
    36   20   38 1   
@<TRIPOS>SUBSTRUCTURE
     1 CWT         1 TEMP              0 ****  ****    0 ROOT
