@<TRIPOS>MOLECULE
CWT
   38    40     1     0     0
SMALL
bcc


@<TRIPOS>ATOM
      1 CAA         2.0310    3.0180    1.5700 c3        1 CWT     -0.115100
      2 CAE         3.1900    4.0740   -0.3610 c3        1 CWT     -0.115100
      3 CAF         2.4130    2.8390    0.1010 c3        1 CWT      0.199500
      4 NAG         3.1780    1.6270   -0.1790 nh        1 CWT     -0.773200
      5 CAH         2.5290    0.3890   -0.0770 cc        1 CWT      0.631800
      6 NAI         1.1930    0.1800   -0.0940 nd        1 CWT     -0.648300
      7 CAJ         0.9990   -1.2300   -0.1110 cd        1 CWT      0.024400
      8 CAK         2.3590   -1.9050   -0.1080 c         1 CWT      0.678700
      9 NAL         3.2940   -0.8380   -0.0250 n         1 CWT     -0.442300
     10 OAM         2.6500   -3.1030   -0.1370 o         1 CWT     -0.582500
     11 CAN        -0.1440   -1.9430   -0.1040 ce        1 CWT     -0.027200
     12 CAO        -1.5030   -1.4380   -0.0800 ca        1 CWT     -0.064800
     13 CAP        -1.8420   -0.1970   -0.6680 ca        1 CWT     -0.070000
     14 CAQ        -3.1680    0.1750   -0.5940 ca        1 CWT      0.041100
     15 CAR        -4.1500   -0.6330    0.0340 ca        1 CWT      0.066100
     16 CAS        -3.8310   -1.8490    0.6060 ca        1 CWT     -0.121000
     17 CAT        -2.4850   -2.2370    0.5290 ca        1 CWT     -0.114000
     18 C21         4.6920   -0.9400   -0.2650 c3        1 CWT      0.087300
     19 OAU        -3.7710    1.3310   -1.0860 os        1 CWT     -0.333900
     20 CAV        -5.1740    1.2430   -0.7500 c3        1 CWT      0.321200
     21 OAW        -5.3860   -0.0040   -0.0460 os        1 CWT     -0.333900
     22 HAA1        1.4190    3.9450    1.6770 hc        1 CWT      0.046033
     23 HAA2        1.4260    2.1520    1.9330 hc        1 CWT      0.046033
     24 HAA3        2.9390    3.1170    2.2110 hc        1 CWT      0.046033
     25 HAF         1.4600    2.7770   -0.5080 h1        1 CWT      0.090700
     26 HAE1        4.1270    4.2070    0.2310 hc        1 CWT      0.046033
     27 HAE2        3.4550    4.0000   -1.4430 hc        1 CWT      0.046033
     28 HAE3        2.5450    4.9730   -0.2130 hc        1 CWT      0.046033
     29 HAG         4.0950    1.6360    0.2210 hn        1 CWT      0.407800
     30 HAN        -0.0470   -3.0470   -0.0920 ha        1 CWT      0.149000
     31 H211        5.2590   -0.4300    0.5610 h1        1 CWT      0.051367
     32 H212        4.9750   -2.0280   -0.2860 h1        1 CWT      0.051367
     33 H213        4.9770   -0.4660   -1.2440 h1        1 CWT      0.051367
     34 HAP        -1.0950    0.4370   -1.1640 ha        1 CWT      0.178000
     35 HAT        -2.1930   -3.2020    0.9710 ha        1 CWT      0.140000
     36 HAS        -4.5850   -2.4800    1.0920 ha        1 CWT      0.156000
     37 HAV1       -5.4320    2.0870   -0.0650 h2        1 CWT      0.071700
     38 HAV2       -5.7680    1.2220   -1.6970 h2        1 CWT      0.071700
@<TRIPOS>BOND
     1    1    3 1   
     2    1   22 1   
     3    1   23 1   
     4    1   24 1   
     5    2    3 1   
     6    2   26 1   
     7    2   27 1   
     8    2   28 1   
     9    3    4 1   
    10    3   25 1   
    11    4    5 1   
    12    4   29 1   
    13    5    6 2   
    14    5    9 1   
    15    6    7 1   
    16    7    8 1   
    17    7   11 2   
    18    8    9 1   
    19    8   10 2   
    20    9   18 1   
    21   11   12 1   
    22   11   30 1   
    23   12   13 ar  
    24   12   17 ar  
    25   13   14 ar  
    26   13   34 1   
    27   14   15 ar  
    28   14   19 1   
    29   15   16 ar  
    30   15   21 1   
    31   16   17 ar  
    32   16   36 1   
    33   17   35 1   
    34   18   31 1   
    35   18   32 1   
    36   18   33 1   
    37   19   20 1   
    38   20   21 1   
    39   20   37 1   
    40   20   38 1   
@<TRIPOS>SUBSTRUCTURE
     1 CWT         1 TEMP              0 ****  ****    0 ROOT
