@<TRIPOS>MOLECULE
CWT
   39    41     1     0     0
SMALL
bcc


@<TRIPOS>ATOM
      1 CAA         0.4200    1.4280    1.7880 c3        1 CWT     -0.138100
      2 CAE         1.3540    1.8640   -0.4910 c3        1 CWT     -0.138100
      3 CAF         1.1080    0.8120    0.5810 c3        1 CWT      0.141500
      4 NAG         2.4260    0.1560    0.9700 ny        1 CWT     -0.698000
      5 CAH         2.2260   -1.1180    1.6750 cc        1 CWT      0.422800
      6 NAI         1.9240   -2.2600    1.0400 nd        1 CWT     -0.496300
      7 CAJ         1.8110   -3.2520    2.0510 cd        1 CWT     -0.089600
      8 CAK         2.0760   -2.6110    3.3920 c         1 CWT      0.694700
      9 NAL         2.2900   -1.2170    3.0960 n         1 CWT     -0.414300
     10 OAM         2.0940   -3.0880    4.5220 o         1 CWT     -0.530500
     11 CAN         1.5080   -4.5740    1.9420 ce        1 CWT      0.133800
     12 CAO         1.2130   -5.3620    0.7810 ca        1 CWT     -0.145800
     13 CAP         1.4030   -4.8860   -0.5430 ca        1 CWT     -0.055000
     14 CAQ         1.0780   -5.7510   -1.5620 ca        1 CWT      0.031100
     15 CAR         0.5780   -7.0620   -1.3230 ca        1 CWT      0.130100
     16 CAS         0.3930   -7.5420   -0.0380 ca        1 CWT     -0.133000
     17 CAT         0.7250   -6.6690    1.0040 ca        1 CWT     -0.055000
     18 C21         2.8630   -0.2540    3.9740 c3        1 CWT      0.063300
     19 OAU         1.1670   -5.5390   -2.9330 os        1 CWT     -0.329900
     20 CAV         0.7130   -6.7560   -3.5760 c3        1 CWT      0.319200
     21 OAW         0.3460   -7.6920   -2.5270 os        1 CWT     -0.310900
     22 HAA1        0.2150    0.6650    2.5800 hc        1 CWT      0.080700
     23 HAA2        1.0240    2.2600    2.2270 hc        1 CWT      0.080700
     24 HAA3       -0.5620    1.8490    1.4510 hc        1 CWT      0.080700
     25 HAF         0.4620   -0.0160    0.1570 hx        1 CWT      0.126700
     26 HAE1        0.3610    2.2830   -0.7960 hc        1 CWT      0.080700
     27 HAE2        1.8350    1.4270   -1.4000 hc        1 CWT      0.080700
     28 HAE3        1.9820    2.7050   -0.1090 hc        1 CWT      0.080700
     29 HAG         2.9610    0.7960    1.5710 hn        1 CWT      0.466300
     30 HAN         1.4700   -5.1220    2.9130 ha        1 CWT      0.169000
     31 H211        3.9330   -0.0330    3.7100 h1        1 CWT      0.067367
     32 H212        2.2650    0.6980    3.9410 h1        1 CWT      0.067367
     33 H213        2.8270   -0.6700    5.0200 h1        1 CWT      0.067367
     34 HAP         1.8000   -3.8880   -0.7640 ha        1 CWT      0.169000
     35 HAT         0.5920   -7.0250    2.0400 ha        1 CWT      0.153000
     36 HAS         0.0110   -8.5540    0.1550 ha        1 CWT      0.179000
     37 HAV1       -0.2010   -6.5250   -4.1780 h2        1 CWT      0.091200
     38 HAV2        1.5600   -7.1930   -4.1590 h2        1 CWT      0.091200
     39 HAG2        2.9670   -0.0280    0.1130 hn        1 CWT      0.466300
@<TRIPOS>BOND
     1    1    3 1   
     2    1   22 1   
     3    1   23 1   
     4    1   24 1   
     5    2    3 1   
     6    2   26 1   
     7    2   27 1   
     8    2   28 1   
     9    3    4 1   
    10    3   25 1   
    11    4    5 1   
    12    4   29 1   
    13    4   39 1   
    14    5    6 2   
    15    5    9 1   
    16    6    7 1   
    17    7    8 1   
    18    7   11 2   
    19    8    9 1   
    20    8   10 2   
    21    9   18 1   
    22   11   12 1   
    23   11   30 1   
    24   12   13 ar  
    25   12   17 ar  
    26   13   14 ar  
    27   13   34 1   
    28   14   15 ar  
    29   14   19 1   
    30   15   16 ar  
    31   15   21 1   
    32   16   17 ar  
    33   16   36 1   
    34   17   35 1   
    35   18   31 1   
    36   18   32 1   
    37   18   33 1   
    38   19   20 1   
    39   20   21 1   
    40   20   37 1   
    41   20   38 1   
@<TRIPOS>SUBSTRUCTURE
     1 CWT         1 TEMP              0 ****  ****    0 ROOT
