@<TRIPOS>MOLECULE
CWT
   39    41     1     0     0
SMALL
bcc


@<TRIPOS>ATOM
      1 CAA         0.4730    1.4650    1.6990 c3        1 CWT     -0.138100
      2 CAE         1.4700    1.8450   -0.5640 c3        1 CWT     -0.138100
      3 CAF         1.1780    0.8160    0.5190 c3        1 CWT      0.141500
      4 NAG         2.4730    0.1410    0.9500 n4        1 CWT     -0.698000
      5 CAH         2.2310   -1.1170    1.6710 cc        1 CWT      0.422800
      6 NAI         1.9200   -2.2630    1.0480 nd        1 CWT     -0.496300
      7 CAJ         1.7640   -3.2360    2.0720 cd        1 CWT     -0.089600
      8 CAK         2.0100   -2.5780    3.4080 c         1 CWT      0.694700
      9 NAL         2.2600   -1.1930    3.0940 n         1 CWT     -0.414300
     10 OAM         1.9930   -3.0360    4.5460 o         1 CWT     -0.531500
     11 CAN         1.4380   -4.5530    1.9780 ce        1 CWT      0.133800
     12 CAO         1.1550   -5.3570    0.8240 ca        1 CWT     -0.145800
     13 CAP         1.3740   -4.9040   -0.5030 ca        1 CWT     -0.055000
     14 CAQ         1.0570   -5.7810   -1.5140 ca        1 CWT      0.031100
     15 CAR         0.5370   -7.0820   -1.2640 ca        1 CWT      0.130100
     16 CAS         0.3230   -7.5390    0.0250 ca        1 CWT     -0.133000
     17 CAT         0.6460   -6.6530    1.0590 ca        1 CWT     -0.055000
     18 C21         2.8300   -0.2270    3.9690 c3        1 CWT      0.063300
     19 OAU         1.1740   -5.5920   -2.8870 os        1 CWT     -0.329900
     20 CAV         0.7160   -6.8130   -3.5190 c3        1 CWT      0.319200
     21 OAW         0.3190   -7.7280   -2.4620 os        1 CWT     -0.310900
     22 HAA1        1.0830    2.2920    2.1380 hc        1 CWT      0.080700
     23 HAA2        0.2340    0.7200    2.4970 hc        1 CWT      0.080700
     24 HAA3       -0.4910    1.8990    1.3310 hc        1 CWT      0.080700
     25 HAF         0.5250   -0.0070    0.0930 hx        1 CWT      0.126700
     26 HAE1        0.4930    2.2780   -0.9000 hc        1 CWT      0.080700
     27 HAE2        2.1060    2.6800   -0.1810 hc        1 CWT      0.080700
     28 HAE3        1.9640    1.3830   -1.4540 hc        1 CWT      0.080700
     29 HAG         3.0300   -0.0690    0.1090 hn        1 CWT      0.466300
     30 HAN         1.3680   -5.0840    2.9570 ha        1 CWT      0.169000
     31 H211        2.2520    0.7360    3.9060 h1        1 CWT      0.067367
     32 H212        3.9100   -0.0300    3.7280 h1        1 CWT      0.067367
     33 H213        2.7620   -0.6250    5.0210 h1        1 CWT      0.067367
     34 HAP         1.7880   -3.9140   -0.7330 ha        1 CWT      0.169000
     35 HAT         0.4890   -6.9910    2.0980 ha        1 CWT      0.153000
     36 HAS        -0.0760   -8.5430    0.2270 ha        1 CWT      0.179000
     37 HAV1       -0.1830   -6.5800   -4.1410 h2        1 CWT      0.091200
     38 HAV2        1.5690   -7.2700   -4.0790 h2        1 CWT      0.091200
     39 HAG2        3.0060    0.7800    1.5530 hn        1 CWT      0.466300
@<TRIPOS>BOND
     1    1    3 1   
     2    1   22 1   
     3    1   23 1   
     4    1   24 1   
     5    2    3 1   
     6    2   26 1   
     7    2   27 1   
     8    2   28 1   
     9    3    4 1   
    10    3   25 1   
    11    4    5 1   
    12    4   29 1   
    13    4   39 1   
    14    5    6 2   
    15    5    9 1   
    16    6    7 1   
    17    7    8 1   
    18    7   11 2   
    19    8    9 1   
    20    8   10 2   
    21    9   18 1   
    22   11   12 1   
    23   11   30 1   
    24   12   13 ar  
    25   12   17 ar  
    26   13   14 ar  
    27   13   34 1   
    28   14   15 ar  
    29   14   19 1   
    30   15   16 ar  
    31   15   21 1   
    32   16   17 ar  
    33   16   36 1   
    34   17   35 1   
    35   18   31 1   
    36   18   32 1   
    37   18   33 1   
    38   19   20 1   
    39   20   21 1   
    40   20   37 1   
    41   20   38 1   
@<TRIPOS>SUBSTRUCTURE
     1 CWT         1 TEMP              0 ****  ****    0 ROOT
