@<TRIPOS>MOLECULE
CWT
   39    41     1     0     0
SMALL
bcc


@<TRIPOS>ATOM
      1 CAA         0.5160    1.4800    1.6740 c3        1 CWT     -0.138100
      2 CAE         1.5580    1.8390   -0.5710 c3        1 CWT     -0.138100
      3 CAF         1.2310    0.8180    0.5080 c3        1 CWT      0.141500
      4 NAG         2.5080    0.1240    0.9640 n4        1 CWT     -0.698000
      5 CAH         2.2350   -1.1290    1.6830 cc        1 CWT      0.422800
      6 NAI         1.9190   -2.2710    1.0570 nd        1 CWT     -0.496300
      7 CAJ         1.7290   -3.2390    2.0800 cd        1 CWT     -0.089600
      8 CAK         1.9610   -2.5820    3.4180 c         1 CWT      0.694700
      9 NAL         2.2370   -1.2020    3.1070 n         1 CWT     -0.414300
     10 OAM         1.9170   -3.0370    4.5570 o         1 CWT     -0.530500
     11 CAN         1.3840   -4.5510    1.9820 ce        1 CWT      0.133800
     12 CAO         1.1100   -5.3520    0.8240 ca        1 CWT     -0.145800
     13 CAP         1.3740   -4.9100   -0.4990 ca        1 CWT     -0.055000
     14 CAQ         1.0600   -5.7820   -1.5150 ca        1 CWT      0.031100
     15 CAR         0.5020   -7.0690   -1.2730 ca        1 CWT      0.130100
     16 CAS         0.2450   -7.5160    0.0110 ca        1 CWT     -0.133000
     17 CAT         0.5640   -6.6350    1.0500 ca        1 CWT     -0.055000
     18 C21         2.8070   -0.2420    3.9900 c3        1 CWT      0.063300
     19 OAU         1.2160   -5.6020   -2.8850 os        1 CWT     -0.329900
     20 CAV         0.7440   -6.8130   -3.5240 c3        1 CWT      0.319200
     21 OAW         0.2980   -7.7140   -2.4750 os        1 CWT     -0.310900
     22 HAA1        0.2520    0.7400    2.4700 hc        1 CWT      0.080700
     23 HAA2        1.1300    2.2980    2.1230 hc        1 CWT      0.080700
     24 HAA3       -0.4350    1.9280    1.2890 hc        1 CWT      0.080700
     25 HAF         0.5740    0.0030    0.0720 hx        1 CWT      0.126700
     26 HAE1        0.5930    2.2860   -0.9250 hc        1 CWT      0.080700
     27 HAE2        2.0600    1.3680   -1.4520 hc        1 CWT      0.080700
     28 HAE3        2.1990    2.6660   -0.1780 hc        1 CWT      0.080700
     29 HAG         3.0400    0.7570    1.5750 hn        1 CWT      0.466300
     30 HAN         1.2870   -5.0790    2.9600 ha        1 CWT      0.169000
     31 H211        3.8940   -0.0630    3.7670 h1        1 CWT      0.067367
     32 H212        2.2450    0.7290    3.9140 h1        1 CWT      0.067367
     33 H213        2.7130   -0.6360    5.0410 h1        1 CWT      0.067367
     34 HAP         1.8180   -3.9320   -0.7200 ha        1 CWT      0.168000
     35 HAT         0.3740   -6.9650    2.0860 ha        1 CWT      0.153000
     36 HAS        -0.1830   -8.5090    0.2060 ha        1 CWT      0.179000
     37 HAV1       -0.1330   -6.5610   -4.1690 h2        1 CWT      0.091200
     38 HAV2        1.5990   -7.2930   -4.0610 h2        1 CWT      0.091200
     39 HAG2        3.0770   -0.0960    0.1330 hn        1 CWT      0.466300
@<TRIPOS>BOND
     1    1    3 1   
     2    1   22 1   
     3    1   23 1   
     4    1   24 1   
     5    2    3 1   
     6    2   26 1   
     7    2   27 1   
     8    2   28 1   
     9    3    4 1   
    10    3   25 1   
    11    4    5 1   
    12    4   29 1   
    13    4   39 1   
    14    5    6 2   
    15    5    9 1   
    16    6    7 1   
    17    7    8 1   
    18    7   11 2   
    19    8    9 1   
    20    8   10 2   
    21    9   18 1   
    22   11   12 1   
    23   11   30 1   
    24   12   13 ar  
    25   12   17 ar  
    26   13   14 ar  
    27   13   34 1   
    28   14   15 ar  
    29   14   19 1   
    30   15   16 ar  
    31   15   21 1   
    32   16   17 ar  
    33   16   36 1   
    34   17   35 1   
    35   18   31 1   
    36   18   32 1   
    37   18   33 1   
    38   19   20 1   
    39   20   21 1   
    40   20   37 1   
    41   20   38 1   
@<TRIPOS>SUBSTRUCTURE
     1 CWT         1 TEMP              0 ****  ****    0 ROOT
