@<TRIPOS>MOLECULE
CWU
   38    41     1     0     0
SMALL
bcc


@<TRIPOS>ATOM
      1 C1          4.7350   -2.5830    0.5210 ca        1 CWU     -0.149000
      2 C2          3.4840   -3.1280    0.2480 ca        1 CWU     -0.143000
      3 C3          4.8950   -1.1980    0.6520 ca        1 CWU     -0.131000
      4 C4          2.3620   -2.3020    0.1000 ca        1 CWU     -0.125000
      5 C5         -1.3330   -1.4630   -1.3010 ca        1 CWU     -0.153000
      6 C6         -2.6900   -1.7860   -1.1200 ca        1 CWU     -0.143000
      7 C7         -1.5860    0.7330   -0.2270 ca        1 CWU     -0.074600
      8 C8          3.7880   -0.3770    0.5070 ca        1 CWU     -0.079300
      9 C9          2.5140   -0.9300    0.2330 ca        1 CWU     -0.055300
     10 C10        -0.7930   -0.2480   -0.8780 ca        1 CWU     -0.064300
     11 C11        -3.4600   -0.8290   -0.4950 ca        1 CWU      0.030100
     12 C12        -2.9170    0.4070   -0.0560 ca        1 CWU      0.067100
     13 C14         3.7210    1.1070    0.5950 c3        1 CWU     -0.045100
     14 C15        -5.1370    0.3730    0.4610 c3        1 CWU      0.319200
     15 C16         1.4640    0.1330    0.1410 c3        1 CWU     -0.057400
     16 C17         2.2360    1.4740    0.3580 c3        1 CWU      0.154100
     17 C18         0.6470    0.0480   -1.1410 c3        1 CWU     -0.026100
     18 O19        -0.6530    2.1440    1.4590 o         1 CWU     -0.822300
     19 O20        -0.7270    2.9250   -0.6290 o         1 CWU     -0.822300
     20 O21        -4.8210   -0.8770   -0.1900 os        1 CWU     -0.357900
     21 O22        -3.9370    1.1620    0.5320 os        1 CWU     -0.314900
     22 O23         2.1990    2.3560   -0.7420 oh        1 CWU     -0.635800
     23 H1          5.6070   -3.2420    0.6350 ha        1 CWU      0.112000
     24 H2          3.3710   -4.2170    0.1460 ha        1 CWU      0.114000
     25 H3          5.8850   -0.7720    0.8650 ha        1 CWU      0.120000
     26 H4          1.3750   -2.7330   -0.1180 ha        1 CWU      0.135000
     27 H5         -0.6840   -2.2000   -1.7970 ha        1 CWU      0.117000
     28 H6         -3.1050   -2.7410   -1.4570 ha        1 CWU      0.129000
     29 H141        4.0530    1.4690    1.5980 hc        1 CWU      0.056200
     30 H142        4.3660    1.5870   -0.1850 hc        1 CWU      0.056200
     31 H16         0.7600    0.0330    1.0200 hc        1 CWU      0.099700
     32 H181        1.0820   -0.7380   -1.8140 hc        1 CWU      0.063700
     33 H182        0.6990    1.0280   -1.6960 hc        1 CWU      0.063700
     34 H17         1.7920    1.9810    1.2610 h1        1 CWU      0.079700
     35 H151       -5.8910    0.9170   -0.1600 h2        1 CWU      0.050200
     36 H152       -5.4880    0.1540    1.5000 h2        1 CWU      0.050200
     37 H23         1.3210    2.7820   -0.7310 ho        1 CWU      0.460000
     38 C13        -0.9620    2.0370    0.2410 c         1 CWU      0.921200
@<TRIPOS>BOND
     1    1    2 ar  
     2    1    3 ar  
     3    1   23 1   
     4    2    4 ar  
     5    2   24 1   
     6    3    8 ar  
     7    3   25 1   
     8    4    9 ar  
     9    4   26 1   
    10    5    6 ar  
    11    5   10 ar  
    12    5   27 1   
    13    6   11 ar  
    14    6   28 1   
    15    7   10 ar  
    16    7   12 ar  
    17    7   38 1   
    18    8    9 ar  
    19    8   13 1   
    20    9   15 1   
    21   10   17 1   
    22   11   12 ar  
    23   11   20 1   
    24   12   21 1   
    25   13   16 1   
    26   13   29 1   
    27   13   30 1   
    28   14   20 1   
    29   14   21 1   
    30   14   35 1   
    31   14   36 1   
    32   15   16 1   
    33   15   17 1   
    34   15   31 1   
    35   16   22 1   
    36   16   34 1   
    37   17   32 1   
    38   17   33 1   
    39   18   38 1   
    40   19   38 1   
    41   22   37 1   
@<TRIPOS>SUBSTRUCTURE
     1 CWU         1 TEMP              0 ****  ****    0 ROOT
