@<TRIPOS>MOLECULE
CWX
   53    54     1     0     0
SMALL
bcc


@<TRIPOS>ATOM
      1 CAR         0.0770    1.0160   -0.2650 c3        1 CWX      0.093100
      2 NAQ         0.8050   -0.2330   -0.1020 n3        1 CWX     -1.009800
      3 SAN         2.3510   -0.0800    1.4600 s4        1 CWX      1.662300
      4 OAO         3.4050   -0.0490    0.5900 o         1 CWX     -0.451900
      5 OAP         1.8710    1.0470    2.0660 o         1 CWX     -0.451900
      6 CAK         2.0190   -1.4490    2.1300 ca        1 CWX     -0.640500
      7 CAJ         2.6610   -2.6520    1.7280 ca        1 CWX      0.030000
      8 CAI         2.4110   -3.8530    2.3520 ca        1 CWX     -0.174000
      9 CAL         1.1030   -1.5480    3.2130 ca        1 CWX      0.030000
     10 CAM         0.8470   -2.7470    3.8390 ca        1 CWX     -0.174000
     11 CAH         1.4950   -3.9370    3.4290 cp        1 CWX      0.171000
     12 CAE         1.2370   -5.1940    4.0910 cp        1 CWX     -0.168000
     13 CAD        -0.0070   -5.4380    4.7120 ca        1 CWX     -0.043000
     14 CAC        -0.2620   -6.6390    5.3490 ca        1 CWX     -0.182000
     15 CAF         2.2260   -6.1940    4.1450 ca        1 CWX     -0.043000
     16 CAG         1.9940   -7.3980    4.7940 ca        1 CWX     -0.182000
     17 CAB         0.7450   -7.6290    5.3950 ca        1 CWX      0.208100
     18 O1          0.4000   -8.7680    6.0730 os        1 CWX     -0.349900
     19 C1          1.2510   -9.9150    5.9460 c3        1 CWX      0.302900
     20 O5          2.4140   -9.6310    6.6710 os        1 CWX     -0.424600
     21 C5          2.2540   -9.5940    8.0960 c3        1 CWX      0.140100
     22 C6          3.6210   -9.2160    8.6690 c3        1 CWX      0.134400
     23 O6          3.7220   -7.8030    8.6010 oh        1 CWX     -0.603800
     24 C4          1.8200  -10.9860    8.5710 c3        1 CWX      0.121100
     25 O4          1.7140  -10.9410    9.9810 oh        1 CWX     -0.589800
     26 C3          0.4580  -11.3430    7.9470 c3        1 CWX      0.072100
     27 O3          0.2780  -12.7220    8.2330 oh        1 CWX     -0.601800
     28 C2          0.4080  -11.1140    6.4310 c3        1 CWX      0.092100
     29 O2          0.8070  -12.2680    5.7220 oh        1 CWX     -0.579800
     30 H21        -0.3220    1.3440    0.7340 h1        1 CWX      0.085700
     31 H22        -0.7800    0.9130   -0.9820 h1        1 CWX      0.085700
     32 H31         3.2170   -6.0160    3.6960 ha        1 CWX      0.140500
     33 H32         2.7960   -8.1500    4.8700 ha        1 CWX      0.171500
     34 HO3        -0.4950  -13.0250    7.7380 ho        1 CWX      0.426000
     35 H2         -0.6610  -10.9440    6.1070 h1        1 CWX      0.102700
     36 HAR         0.7740    1.8080   -0.6520 h1        1 CWX      0.085700
     37 HAQ         1.2730   -0.4760   -0.9650 hn        1 CWX      0.412800
     38 HAJ         3.3890   -2.6100    0.8940 ha        1 CWX      0.164500
     39 HAL         0.6020   -0.6270    3.5680 ha        1 CWX      0.164500
     40 HAI         2.9230   -4.7650    2.0030 ha        1 CWX      0.172500
     41 HAM         0.1460   -2.7770    4.6920 ha        1 CWX      0.172500
     42 HAD        -0.8010   -4.6760    4.6730 ha        1 CWX      0.140500
     43 HAC        -1.2330   -6.8350    5.8290 ha        1 CWX      0.171500
     44 H1          1.5890  -10.0720    4.8810 h2        1 CWX      0.106700
     45 H5          1.4860   -8.8200    8.3700 h1        1 CWX      0.089700
     46 H61         4.4420   -9.6830    8.0630 h1        1 CWX      0.054200
     47 H62         3.6730   -9.5710    9.7340 h1        1 CWX      0.054200
     48 H4          2.5830  -11.7570    8.2670 h1        1 CWX      0.060700
     49 HO6         4.4680   -7.5550    9.1600 ho        1 CWX      0.409000
     50 HO4         1.3870  -11.8090   10.2590 ho        1 CWX      0.430000
     51 H3         -0.3510  -10.7390    8.4450 h1        1 CWX      0.075700
     52 HO2         1.5900  -12.6310    6.1600 ho        1 CWX      0.422000
     53 HAQ2        0.1700   -0.9810    0.1340 hn        1 CWX      0.412800
@<TRIPOS>BOND
     1    1    2 1   
     2    1   30 1   
     3    1   31 1   
     4    1   36 1   
     5    2   37 1   
     6    2   53 1   
     7    3    4 1   
     8    3    5 1   
     9    3    6 1   
    10    6    7 ar  
    11    6    9 ar  
    12    7    8 ar  
    13    7   38 1   
    14    8   11 ar  
    15    8   40 1   
    16    9   10 ar  
    17    9   39 1   
    18   10   11 ar  
    19   10   41 1   
    20   11   12 1   
    21   12   13 ar  
    22   12   15 ar  
    23   13   14 ar  
    24   13   42 1   
    25   14   17 ar  
    26   14   43 1   
    27   15   16 ar  
    28   15   32 1   
    29   16   17 ar  
    30   16   33 1   
    31   17   18 1   
    32   18   19 1   
    33   19   20 1   
    34   19   28 1   
    35   19   44 1   
    36   20   21 1   
    37   21   22 1   
    38   21   24 1   
    39   21   45 1   
    40   22   23 1   
    41   22   46 1   
    42   22   47 1   
    43   23   49 1   
    44   24   25 1   
    45   24   26 1   
    46   24   48 1   
    47   25   50 1   
    48   26   27 1   
    49   26   28 1   
    50   26   51 1   
    51   27   34 1   
    52   28   29 1   
    53   28   35 1   
    54   29   52 1   
@<TRIPOS>SUBSTRUCTURE
     1 CWX         1 TEMP              0 ****  ****    0 ROOT
