@<TRIPOS>MOLECULE
CWX
   53    54     1     0     0
SMALL
bcc


@<TRIPOS>ATOM
      1 CAR         0.0610    1.0060   -0.2730 c3        1 CWX      0.093100
      2 NAQ         0.7930   -0.2400   -0.1080 n8        1 CWX     -1.009800
      3 SAN         2.3350   -0.0790    1.4570 s4        1 CWX      1.662300
      4 OAO         3.3910   -0.0460    0.5890 o         1 CWX     -0.451900
      5 OAP         1.8500    1.0460    2.0610 o         1 CWX     -0.451900
      6 CAK         2.0070   -1.4490    2.1270 ca        1 CWX     -0.640500
      7 CAJ         2.6540   -2.6500    1.7280 ca        1 CWX      0.030000
      8 CAI         2.4070   -3.8510    2.3530 ca        1 CWX     -0.174000
      9 CAL         1.0890   -1.5520    3.2080 ca        1 CWX      0.030000
     10 CAM         0.8350   -2.7500    3.8350 ca        1 CWX     -0.174000
     11 CAH         1.4900   -3.9380    3.4280 cp        1 CWX      0.171000
     12 CAE         1.2340   -5.1950    4.0910 cp        1 CWX     -0.168000
     13 CAD        -0.0100   -5.4440    4.7080 ca        1 CWX     -0.043000
     14 CAC        -0.2620   -6.6450    5.3460 ca        1 CWX     -0.182000
     15 CAF         2.2280   -6.1920    4.1480 ca        1 CWX     -0.043000
     16 CAG         1.9980   -7.3960    4.7970 ca        1 CWX     -0.182000
     17 CAB         0.7490   -7.6310    5.3960 ca        1 CWX      0.208100
     18 O1          0.4070   -8.7710    6.0740 os        1 CWX     -0.349900
     19 C1          1.2630   -9.9150    5.9490 c3        1 CWX      0.302900
     20 O5          2.4230   -9.6250    6.6770 os        1 CWX     -0.424600
     21 C5          2.2600   -9.5880    8.1020 c3        1 CWX      0.140100
     22 C6          3.6240   -9.2040    8.6780 c3        1 CWX      0.134400
     23 O6          3.7200   -7.7910    8.6080 oh        1 CWX     -0.603800
     24 C4          1.8300  -10.9820    8.5760 c3        1 CWX      0.121100
     25 O4          1.7200  -10.9360    9.9860 oh        1 CWX     -0.589800
     26 C3          0.4710  -11.3440    7.9500 c3        1 CWX      0.072100
     27 O3          0.2950  -12.7230    8.2360 oh        1 CWX     -0.601800
     28 C2          0.4240  -11.1170    6.4330 c3        1 CWX      0.092100
     29 O2          0.8290  -12.2700    5.7260 oh        1 CWX     -0.579800
     30 H21        -0.3420    1.3330    0.7240 h1        1 CWX      0.085700
     31 H22         0.7550    1.8000   -0.6590 h1        1 CWX      0.085700
     32 H31         3.2190   -6.0100    3.7010 ha        1 CWX      0.140500
     33 H32         2.8030   -8.1450    4.8760 ha        1 CWX      0.172000
     34 HO3        -0.4750  -13.0300    7.7400 ho        1 CWX      0.426000
     35 H2         -0.6450  -10.9510    6.1070 h1        1 CWX      0.102700
     36 HAR        -0.7950    0.9000   -0.9930 h1        1 CWX      0.085700
     37 HAQ         1.2640   -0.4810   -0.9690 hn        1 CWX      0.412800
     38 HAJ         3.3840   -2.6070    0.8960 ha        1 CWX      0.164500
     39 HAL         0.5830   -0.6320    3.5610 ha        1 CWX      0.164500
     40 HAI         2.9240   -4.7620    2.0060 ha        1 CWX      0.172500
     41 HAM         0.1330   -2.7820    4.6860 ha        1 CWX      0.172500
     42 HAD        -0.8070   -4.6850    4.6660 ha        1 CWX      0.140500
     43 HAC        -1.2330   -6.8450    5.8240 ha        1 CWX      0.172000
     44 H1          1.6040  -10.0710    4.8860 h2        1 CWX      0.106700
     45 H5          1.4880   -8.8170    8.3730 h1        1 CWX      0.089700
     46 H61         3.6740   -9.5580    9.7430 h1        1 CWX      0.054200
     47 H62         4.4480   -9.6690    8.0750 h1        1 CWX      0.054200
     48 H4          2.5960  -11.7500    8.2750 h1        1 CWX      0.060700
     49 HO6         4.4650   -7.5410    9.1670 ho        1 CWX      0.409000
     50 HO4         1.3960  -11.8050   10.2650 ho        1 CWX      0.430000
     51 H3         -0.3420  -10.7430    8.4450 h1        1 CWX      0.075700
     52 HO2         1.6130  -12.6290    6.1670 ho        1 CWX      0.422000
     53 HAQ2        0.1610   -0.9900    0.1270 hn        1 CWX      0.412800
@<TRIPOS>BOND
     1    1    2 1   
     2    1   30 1   
     3    1   31 1   
     4    1   36 1   
     5    2   37 1   
     6    2   53 1   
     7    3    4 1   
     8    3    5 1   
     9    3    6 1   
    10    6    7 ar  
    11    6    9 ar  
    12    7    8 ar  
    13    7   38 1   
    14    8   11 ar  
    15    8   40 1   
    16    9   10 ar  
    17    9   39 1   
    18   10   11 ar  
    19   10   41 1   
    20   11   12 1   
    21   12   13 ar  
    22   12   15 ar  
    23   13   14 ar  
    24   13   42 1   
    25   14   17 ar  
    26   14   43 1   
    27   15   16 ar  
    28   15   32 1   
    29   16   17 ar  
    30   16   33 1   
    31   17   18 1   
    32   18   19 1   
    33   19   20 1   
    34   19   28 1   
    35   19   44 1   
    36   20   21 1   
    37   21   22 1   
    38   21   24 1   
    39   21   45 1   
    40   22   23 1   
    41   22   46 1   
    42   22   47 1   
    43   23   49 1   
    44   24   25 1   
    45   24   26 1   
    46   24   48 1   
    47   25   50 1   
    48   26   27 1   
    49   26   28 1   
    50   26   51 1   
    51   27   34 1   
    52   28   29 1   
    53   28   35 1   
    54   29   52 1   
@<TRIPOS>SUBSTRUCTURE
     1 CWX         1 TEMP              0 ****  ****    0 ROOT
