@<TRIPOS>MOLECULE
CWZ
   61    65     1     0     0
SMALL
bcc


@<TRIPOS>ATOM
      1 C26         0.5050   -0.3270   -0.0830 ca        1 CWZ     -0.086000
      2 C18         1.8940   -0.4780   -0.1270 ca        1 CWZ     -0.076300
      3 C19         2.6990    0.1290   -1.2420 c3        1 CWZ      0.210100
      4 N2          2.3130    1.4960   -1.5690 n3        1 CWZ     -0.734600
      5 C25         2.6430    2.4290   -0.4910 c3        1 CWZ      0.253100
      6 C24         2.5200    3.8500   -0.8880 cc        1 CWZ     -0.212700
      7 S           2.5530    5.1850    0.1310 ss        1 CWZ     -0.094300
      8 C23         2.3670    6.2320   -1.2110 cc        1 CWZ      0.381300
      9 N3          2.2790    5.6380   -2.3940 nd        1 CWZ     -0.613000
     10 C22         2.3680    4.2590   -2.2150 cd        1 CWZ      0.349600
     11 C21         2.2910    3.2770   -3.3240 c3        1 CWZ     -0.104700
     12 C20         2.8180    1.9110   -2.8730 c3        1 CWZ      0.168800
     13 C17         2.5370   -1.2500    0.8460 ca        1 CWZ     -0.106000
     14 C16         1.7950   -1.8670    1.8530 ca        1 CWZ     -0.126000
     15 C15         0.4120   -1.7140    1.9000 ca        1 CWZ     -0.118000
     16 C14        -0.2430   -0.9410    0.9310 cp        1 CWZ     -0.079000
     17 C12        -1.6940   -0.7740    0.9700 cp        1 CWZ     -0.002000
     18 C11        -2.4450   -0.7880   -0.2170 ca        1 CWZ     -0.074000
     19 C10        -3.8280   -0.6150   -0.1820 ca        1 CWZ     -0.115000
     20 C9         -4.4820   -0.4260    1.0330 ca        1 CWZ     -0.111000
     21 C13        -2.3550   -0.5880    2.1920 ca        1 CWZ     -0.097000
     22 C8         -3.7420   -0.4140    2.2220 ca        1 CWZ     -0.194300
     23 C7         -4.4310   -0.1690    3.5180 c3        1 CWZ      0.177100
     24 N1         -4.9920   -1.4500    4.0700 n4        1 CWZ     -0.768000
     25 C          -5.7170   -1.2390    5.3560 c3        1 CWZ      0.096800
     26 C1         -6.2940   -2.5350    5.9270 c3        1 CWZ     -0.041100
     27 C2         -7.0440   -2.2280    7.1690 ca        1 CWZ     -0.249600
     28 C6         -8.3280   -1.6430    7.1040 ca        1 CWZ      0.408200
     29 N          -9.0690   -1.3540    8.1870 nb        1 CWZ     -0.643000
     30 C5         -8.5500   -1.6530    9.3950 ca        1 CWZ      0.424200
     31 C4         -7.2830   -2.2460    9.5660 ca        1 CWZ     -0.233300
     32 C3         -6.5230   -2.5350    8.4340 ca        1 CWZ     -0.073000
     33 H26        -0.0000    0.2900   -0.8440 ha        1 CWZ      0.157000
     34 H191        2.5310   -0.5080   -2.1600 h1        1 CWZ      0.049700
     35 H192        3.7980    0.0580   -0.9800 h1        1 CWZ      0.049700
     36 H17         3.6310   -1.3750    0.8180 ha        1 CWZ      0.146000
     37 H251        3.6950    2.2580   -0.1050 h1        1 CWZ      0.045200
     38 H252        1.9310    2.2010    0.3540 h1        1 CWZ      0.045200
     39 H201        2.4880    1.1450   -3.6300 h1        1 CWZ      0.040200
     40 H202        3.9470    1.9400   -2.8850 h1        1 CWZ      0.040200
     41 H23         2.3260    7.3210   -1.1120 h5        1 CWZ      0.060100
     42 H211        1.2210    3.1870   -3.6550 hc        1 CWZ      0.072200
     43 H212        2.8950    3.6190   -4.2050 hc        1 CWZ      0.072200
     44 H16         2.3060   -2.4790    2.6120 ha        1 CWZ      0.142000
     45 H15        -0.1660   -2.2100    2.6920 ha        1 CWZ      0.120000
     46 H11        -1.9330   -0.9360   -1.1830 ha        1 CWZ      0.165000
     47 H13        -1.7690   -0.5550    3.1230 ha        1 CWZ      0.142000
     48 H10        -4.4050   -0.6210   -1.1210 ha        1 CWZ      0.160000
     49 H9         -5.5710   -0.2670    1.0520 ha        1 CWZ      0.135000
     50 H71C       -3.7200    0.2520    4.2860 hx        1 CWZ      0.107200
     51 H72C       -5.2920    0.5500    3.3880 hx        1 CWZ      0.107200
     52 H1         -4.2250   -2.1170    4.2120 hn        1 CWZ      0.448300
     53 HC1        -6.5500   -0.5010    5.1700 hx        1 CWZ      0.108700
     54 HC2        -4.9940   -0.7830    6.0920 hx        1 CWZ      0.108700
     55 H11C       -5.4680   -3.2640    6.1450 hc        1 CWZ      0.070700
     56 H12C       -6.9850   -3.0150    5.1810 hc        1 CWZ      0.070700
     57 H6         -8.7920   -1.4010    6.1300 h4        1 CWZ      0.019100
     58 H3         -5.5340   -3.0070    8.5340 ha        1 CWZ      0.142000
     59 H5         -9.1870   -1.4070   10.2660 h4        1 CWZ      0.045100
     60 H4         -6.9100   -2.4770   10.5740 ha        1 CWZ      0.164000
     61 H12        -5.6300   -1.8590    3.3770 hn        1 CWZ      0.448300
@<TRIPOS>BOND
     1    1    2 ar  
     2    1   16 ar  
     3    1   33 1   
     4    2    3 1   
     5    2   13 ar  
     6    3    4 1   
     7    3   34 1   
     8    3   35 1   
     9    4    5 1   
    10    4   12 1   
    11    5    6 1   
    12    5   37 1   
    13    5   38 1   
    14    6    7 1   
    15    6   10 2   
    16    7    8 1   
    17    8    9 2   
    18    8   41 1   
    19    9   10 1   
    20   10   11 1   
    21   11   12 1   
    22   11   42 1   
    23   11   43 1   
    24   12   39 1   
    25   12   40 1   
    26   13   14 ar  
    27   13   36 1   
    28   14   15 ar  
    29   14   44 1   
    30   15   16 ar  
    31   15   45 1   
    32   16   17 1   
    33   17   18 ar  
    34   17   21 ar  
    35   18   19 ar  
    36   18   46 1   
    37   19   20 ar  
    38   19   48 1   
    39   20   22 ar  
    40   20   49 1   
    41   21   22 ar  
    42   21   47 1   
    43   22   23 1   
    44   23   24 1   
    45   23   50 1   
    46   23   51 1   
    47   24   25 1   
    48   24   52 1   
    49   24   61 1   
    50   25   26 1   
    51   25   53 1   
    52   25   54 1   
    53   26   27 1   
    54   26   55 1   
    55   26   56 1   
    56   27   28 ar  
    57   27   32 ar  
    58   28   29 ar  
    59   28   57 1   
    60   29   30 ar  
    61   30   31 ar  
    62   30   59 1   
    63   31   32 ar  
    64   31   60 1   
    65   32   58 1   
@<TRIPOS>SUBSTRUCTURE
     1 CWZ         1 TEMP              0 ****  ****    0 ROOT
