@<TRIPOS>MOLECULE
CWZ
   61    65     1     0     0
SMALL
bcc


@<TRIPOS>ATOM
      1 C26         0.4900   -0.3310   -0.1010 ca        1 CWZ     -0.086000
      2 C18         1.8770   -0.4980   -0.1580 ca        1 CWZ     -0.076300
      3 C19         2.6810    0.1120   -1.2720 c3        1 CWZ      0.210100
      4 N2          2.3060    1.4860   -1.5840 n3        1 CWZ     -0.734600
      5 C25         2.6530    2.4050   -0.5000 c3        1 CWZ      0.253100
      6 C24         2.5410    3.8310   -0.8810 cc        1 CWZ     -0.212700
      7 S           2.5940    5.1560    0.1490 ss        1 CWZ     -0.094300
      8 C23         2.4080    6.2180   -1.1810 cc        1 CWZ      0.381300
      9 N3          2.3060    5.6350   -2.3690 nd        1 CWZ     -0.613000
     10 C22         2.3840    4.2550   -2.2040 cd        1 CWZ      0.349600
     11 C21         2.2890    3.2840   -3.3210 c3        1 CWZ     -0.104700
     12 C20         2.8060    1.9090   -2.8870 c3        1 CWZ      0.168800
     13 C17         2.5190   -1.2890    0.8010 ca        1 CWZ     -0.106000
     14 C16         1.7780   -1.9080    1.8060 ca        1 CWZ     -0.126000
     15 C15         0.3970   -1.7380    1.8670 ca        1 CWZ     -0.118000
     16 C14        -0.2570   -0.9470    0.9120 cp        1 CWZ     -0.079000
     17 C12        -1.7050   -0.7630    0.9650 cp        1 CWZ     -0.002000
     18 C11        -2.4660   -0.7540   -0.2160 ca        1 CWZ     -0.074000
     19 C10        -3.8460   -0.5640   -0.1680 ca        1 CWZ     -0.115000
     20 C9         -4.4880   -0.3820    1.0550 ca        1 CWZ     -0.111000
     21 C13        -2.3540   -0.5840    2.1940 ca        1 CWZ     -0.097000
     22 C8         -3.7390   -0.3930    2.2380 ca        1 CWZ     -0.194300
     23 C7         -4.4150   -0.1550    3.5420 c3        1 CWZ      0.177100
     24 N1         -4.9940   -1.4350    4.0800 ny        1 CWZ     -0.768000
     25 C          -5.7070   -1.2290    5.3720 c3        1 CWZ      0.096800
     26 C1         -6.3040   -2.5240    5.9280 c3        1 CWZ     -0.041100
     27 C2         -7.0430   -2.2210    7.1790 ca        1 CWZ     -0.249600
     28 C6         -8.3160   -1.6130    7.1280 ca        1 CWZ      0.408200
     29 N          -9.0470   -1.3270    8.2190 nb        1 CWZ     -0.643000
     30 C5         -8.5280   -1.6520    9.4190 ca        1 CWZ      0.424200
     31 C4         -7.2710   -2.2690    9.5760 ca        1 CWZ     -0.233300
     32 C3         -6.5210   -2.5550    8.4360 ca        1 CWZ     -0.073000
     33 H26        -0.0140    0.3010   -0.8510 ha        1 CWZ      0.157000
     34 H191        3.7800    0.0270   -1.0200 h1        1 CWZ      0.049700
     35 H192        2.5000   -0.5140   -2.1960 h1        1 CWZ      0.049700
     36 H17         3.6110   -1.4270    0.7620 ha        1 CWZ      0.146000
     37 H251        3.7070    2.2210   -0.1230 h1        1 CWZ      0.045200
     38 H252        1.9450    2.1760    0.3490 h1        1 CWZ      0.045200
     39 H201        2.4630    1.1530   -3.6500 h1        1 CWZ      0.040200
     40 H202        3.9350    1.9270   -2.9070 h1        1 CWZ      0.040200
     41 H23         2.3780    7.3060   -1.0720 h5        1 CWZ      0.060100
     42 H211        2.8910    3.6280   -4.2040 hc        1 CWZ      0.072200
     43 H212        1.2160    3.2070   -3.6470 hc        1 CWZ      0.072200
     44 H16         2.2870   -2.5350    2.5540 ha        1 CWZ      0.142000
     45 H15        -0.1810   -2.2370    2.6580 ha        1 CWZ      0.120000
     46 H11        -1.9640   -0.8970   -1.1880 ha        1 CWZ      0.165000
     47 H13        -1.7600   -0.5690    3.1210 ha        1 CWZ      0.142000
     48 H10        -4.4310   -0.5520   -1.1020 ha        1 CWZ      0.160000
     49 H9         -5.5750   -0.2090    1.0840 ha        1 CWZ      0.135000
     50 H71C       -5.2630    0.5800    3.4280 hx        1 CWZ      0.107200
     51 H72C       -3.6910    0.2420    4.3110 hx        1 CWZ      0.107200
     52 H1         -4.2370   -2.1160    4.2080 hn        1 CWZ      0.448300
     53 HC1        -6.5290   -0.4750    5.2020 hx        1 CWZ      0.108700
     54 HC2        -4.9730   -0.7970    6.1100 hx        1 CWZ      0.108700
     55 H11C       -7.0070   -2.9810    5.1790 hc        1 CWZ      0.070700
     56 H12C       -5.4890   -3.2690    6.1320 hc        1 CWZ      0.070700
     57 H6         -8.7810   -1.3490    6.1600 h4        1 CWZ      0.019100
     58 H3         -5.5400   -3.0450    8.5240 ha        1 CWZ      0.142000
     59 H5         -9.1560   -1.4070   10.2970 h4        1 CWZ      0.045100
     60 H4         -6.8970   -2.5210   10.5780 ha        1 CWZ      0.164000
     61 H12        -5.6420   -1.8230    3.3840 hn        1 CWZ      0.448300
@<TRIPOS>BOND
     1    1    2 ar  
     2    1   16 ar  
     3    1   33 1   
     4    2    3 1   
     5    2   13 ar  
     6    3    4 1   
     7    3   34 1   
     8    3   35 1   
     9    4    5 1   
    10    4   12 1   
    11    5    6 1   
    12    5   37 1   
    13    5   38 1   
    14    6    7 1   
    15    6   10 2   
    16    7    8 1   
    17    8    9 2   
    18    8   41 1   
    19    9   10 1   
    20   10   11 1   
    21   11   12 1   
    22   11   42 1   
    23   11   43 1   
    24   12   39 1   
    25   12   40 1   
    26   13   14 ar  
    27   13   36 1   
    28   14   15 ar  
    29   14   44 1   
    30   15   16 ar  
    31   15   45 1   
    32   16   17 1   
    33   17   18 ar  
    34   17   21 ar  
    35   18   19 ar  
    36   18   46 1   
    37   19   20 ar  
    38   19   48 1   
    39   20   22 ar  
    40   20   49 1   
    41   21   22 ar  
    42   21   47 1   
    43   22   23 1   
    44   23   24 1   
    45   23   50 1   
    46   23   51 1   
    47   24   25 1   
    48   24   52 1   
    49   24   61 1   
    50   25   26 1   
    51   25   53 1   
    52   25   54 1   
    53   26   27 1   
    54   26   55 1   
    55   26   56 1   
    56   27   28 ar  
    57   27   32 ar  
    58   28   29 ar  
    59   28   57 1   
    60   29   30 ar  
    61   30   31 ar  
    62   30   59 1   
    63   31   32 ar  
    64   31   60 1   
    65   32   58 1   
@<TRIPOS>SUBSTRUCTURE
     1 CWZ         1 TEMP              0 ****  ****    0 ROOT
