@<TRIPOS>MOLECULE
CWZ
   61    65     1     0     0
SMALL
bcc


@<TRIPOS>ATOM
      1 C26         0.4990   -0.3400   -0.0910 ca        1 CWZ     -0.086000
      2 C18         1.8870   -0.5010   -0.1440 ca        1 CWZ     -0.076300
      3 C19         2.6900    0.1030   -1.2610 c3        1 CWZ      0.210100
      4 N2          2.3100    1.4720   -1.5860 n3        1 CWZ     -0.734600
      5 C25         2.6490    2.4020   -0.5100 c3        1 CWZ      0.253100
      6 C24         2.5300    3.8250   -0.9050 cc        1 CWZ     -0.212700
      7 S           2.5740    5.1590    0.1140 ss        1 CWZ     -0.094300
      8 C23         2.3860    6.2080   -1.2270 cc        1 CWZ      0.381300
      9 N3          2.2910    5.6140   -2.4100 nd        1 CWZ     -0.613000
     10 C22         2.3750    4.2350   -2.2310 cd        1 CWZ      0.349600
     11 C21         2.2880    3.2530   -3.3400 c3        1 CWZ     -0.104700
     12 C20         2.8110    1.8850   -2.8920 c3        1 CWZ      0.168800
     13 C17         2.5300   -1.2800    0.8240 ca        1 CWZ     -0.106000
     14 C16         1.7880   -1.8940    1.8330 ca        1 CWZ     -0.126000
     15 C15         0.4070   -1.7300    1.8890 ca        1 CWZ     -0.118000
     16 C14        -0.2480   -0.9500    0.9260 cp        1 CWZ     -0.079000
     17 C12        -1.6980   -0.7730    0.9730 cp        1 CWZ     -0.002000
     18 C11        -2.4550   -0.7780   -0.2090 ca        1 CWZ     -0.074000
     19 C10        -3.8370   -0.5940   -0.1670 ca        1 CWZ     -0.115000
     20 C9         -4.4820   -0.4040    1.0530 ca        1 CWZ     -0.111000
     21 C13        -2.3500   -0.5860    2.1990 ca        1 CWZ     -0.097000
     22 C8         -3.7360   -0.4000    2.2370 ca        1 CWZ     -0.194300
     23 C7         -4.4160   -0.1540    3.5380 c3        1 CWZ      0.177100
     24 N1         -4.9920   -1.4310    4.0840 n4        1 CWZ     -0.768000
     25 C          -5.7100   -1.2170    5.3730 c3        1 CWZ      0.096800
     26 C1         -6.3050   -2.5090    5.9380 c3        1 CWZ     -0.041100
     27 C2         -7.0480   -2.1980    7.1840 ca        1 CWZ     -0.249600
     28 C6         -8.3220   -1.5930    7.1250 ca        1 CWZ      0.408200
     29 N          -9.0570   -1.3000    8.2120 nb        1 CWZ     -0.643000
     30 C5         -8.5410   -1.6150    9.4160 ca        1 CWZ      0.424200
     31 C4         -7.2830   -2.2280    9.5810 ca        1 CWZ     -0.233300
     32 C3         -6.5300   -2.5220    8.4450 ca        1 CWZ     -0.073000
     33 H26        -0.0060    0.2830   -0.8480 ha        1 CWZ      0.157000
     34 H191        3.7900    0.0260   -1.0040 h1        1 CWZ      0.049700
     35 H192        2.5150   -0.5330   -2.1790 h1        1 CWZ      0.049700
     36 H17         3.6220   -1.4130    0.7900 ha        1 CWZ      0.146000
     37 H251        1.9390    2.1780    0.3390 h1        1 CWZ      0.045200
     38 H252        3.7020    2.2270   -0.1280 h1        1 CWZ      0.045200
     39 H201        3.9400    1.9090   -2.9080 h1        1 CWZ      0.040200
     40 H202        2.4740    1.1210   -3.6480 h1        1 CWZ      0.040200
     41 H23         2.3500    7.2970   -1.1270 h5        1 CWZ      0.060100
     42 H211        1.2170    3.1690   -3.6680 hc        1 CWZ      0.072200
     43 H212        2.8910    3.5930   -4.2240 hc        1 CWZ      0.072200
     44 H16         2.2990   -2.5120    2.5880 ha        1 CWZ      0.142000
     45 H15        -0.1710   -2.2250    2.6830 ha        1 CWZ      0.120000
     46 H11        -1.9500   -0.9270   -1.1790 ha        1 CWZ      0.165000
     47 H13        -1.7580   -0.5600    3.1270 ha        1 CWZ      0.142000
     48 H10        -4.4190   -0.5930   -1.1020 ha        1 CWZ      0.160000
     49 H9         -5.5690   -0.2360    1.0780 ha        1 CWZ      0.135000
     50 H71C       -5.2660    0.5780    3.4160 hx        1 CWZ      0.107200
     51 H72C       -3.6960    0.2520    4.3060 hx        1 CWZ      0.107200
     52 H1         -4.2340   -2.1090    4.2200 hn        1 CWZ      0.448300
     53 HC1        -6.5330   -0.4660    5.1950 hx        1 CWZ      0.108700
     54 HC2        -4.9790   -0.7770    6.1100 hx        1 CWZ      0.108700
     55 H11C       -5.4890   -3.2510    6.1500 hc        1 CWZ      0.070700
     56 H12C       -7.0050   -2.9730    5.1910 hc        1 CWZ      0.070700
     57 H6         -8.7840   -1.3370    6.1540 h4        1 CWZ      0.019100
     58 H3         -5.5480   -3.0090    8.5400 ha        1 CWZ      0.142000
     59 H5         -9.1720   -1.3650   10.2900 h4        1 CWZ      0.045100
     60 H4         -6.9120   -2.4720   10.5860 ha        1 CWZ      0.164000
     61 H12        -5.6380   -1.8270    3.3910 hn        1 CWZ      0.448300
@<TRIPOS>BOND
     1    1    2 ar  
     2    1   16 ar  
     3    1   33 1   
     4    2    3 1   
     5    2   13 ar  
     6    3    4 1   
     7    3   34 1   
     8    3   35 1   
     9    4    5 1   
    10    4   12 1   
    11    5    6 1   
    12    5   37 1   
    13    5   38 1   
    14    6    7 1   
    15    6   10 2   
    16    7    8 1   
    17    8    9 2   
    18    8   41 1   
    19    9   10 1   
    20   10   11 1   
    21   11   12 1   
    22   11   42 1   
    23   11   43 1   
    24   12   39 1   
    25   12   40 1   
    26   13   14 ar  
    27   13   36 1   
    28   14   15 ar  
    29   14   44 1   
    30   15   16 ar  
    31   15   45 1   
    32   16   17 1   
    33   17   18 ar  
    34   17   21 ar  
    35   18   19 ar  
    36   18   46 1   
    37   19   20 ar  
    38   19   48 1   
    39   20   22 ar  
    40   20   49 1   
    41   21   22 ar  
    42   21   47 1   
    43   22   23 1   
    44   23   24 1   
    45   23   50 1   
    46   23   51 1   
    47   24   25 1   
    48   24   52 1   
    49   24   61 1   
    50   25   26 1   
    51   25   53 1   
    52   25   54 1   
    53   26   27 1   
    54   26   55 1   
    55   26   56 1   
    56   27   28 ar  
    57   27   32 ar  
    58   28   29 ar  
    59   28   57 1   
    60   29   30 ar  
    61   30   31 ar  
    62   30   59 1   
    63   31   32 ar  
    64   31   60 1   
    65   32   58 1   
@<TRIPOS>SUBSTRUCTURE
     1 CWZ         1 TEMP              0 ****  ****    0 ROOT
