@<TRIPOS>MOLECULE
CX1
   79    82     1     0     0
SMALL
bcc


@<TRIPOS>ATOM
      1 C40        -0.2930   -4.2570   -0.4080 ca        1 CX1     -0.098000
      2 C41         0.1670   -4.6290   -1.6670 ca        1 CX1     -0.188000
      3 C42        -0.5480   -4.2150   -2.8000 ca        1 CX1      0.093100
      4 O47        -0.0570   -4.6160   -4.0270 oh        1 CX1     -0.515100
      5 C43        -1.7040   -3.4340   -2.6690 ca        1 CX1     -0.188000
      6 C44        -2.1480   -3.0740   -1.3990 ca        1 CX1     -0.098000
      7 C39        -1.4540   -3.4820   -0.2550 ca        1 CX1     -0.080300
      8 C24        -1.9190   -3.1730    1.1230 c3        1 CX1     -0.037100
      9 C23        -2.8210   -1.9470    1.3050 c3        1 CX1     -0.047300
     10 C25        -3.2840   -1.9880    2.8120 c         1 CX1      0.917600
     11 O26        -4.3050   -2.6700    3.0680 o         1 CX1     -0.838800
     12 O27        -2.5980   -1.3560    3.6680 o         1 CX1     -0.838800
     13 N22        -2.1640   -0.6930    0.9880 n         1 CX1     -0.504900
     14 C20        -2.5790    0.1390   -0.0130 c         1 CX1      0.631100
     15 O21        -3.3370   -0.2120   -0.9450 o         1 CX1     -0.650100
     16 C18        -2.0280    1.6020    0.0020 c3        1 CX1      0.034700
     17 C19        -3.2780    2.5020   -0.1040 c3        1 CX1     -0.051100
     18 C33        -2.9870    3.9600   -0.1240 ca        1 CX1     -0.072300
     19 C34        -3.3660    4.7360   -1.2270 ca        1 CX1     -0.126500
     20 C35        -3.1290    6.1100   -1.2380 ca        1 CX1     -0.132000
     21 C36        -2.5130    6.7230   -0.1480 ca        1 CX1     -0.140000
     22 C37        -2.1380    5.9570    0.9550 ca        1 CX1     -0.132000
     23 C38        -2.3760    4.5840    0.9700 ca        1 CX1     -0.126500
     24 N16        -1.0510    1.8120   -1.0450 n         1 CX1     -0.446800
     25 C17        -1.5470    1.9650   -2.3890 c3        1 CX1      0.068300
     26 C14         0.3030    1.9650   -0.8100 c         1 CX1      0.643100
     27 O15         1.0440    2.4300   -1.7060 o         1 CX1     -0.631100
     28 C12         0.9210    1.4770    0.5270 c3        1 CX1      0.031700
     29 C13         0.7700    2.5700    1.6100 c3        1 CX1     -0.092700
     30 C28         0.1020    2.0410    2.8210 cc        1 CX1      0.234600
     31 C29         0.0110    0.6910    3.2350 cd        1 CX1     -0.236600
     32 N30        -0.7620    0.6770    4.3890 na        1 CX1     -0.276900
     33 C31        -1.1310    2.0030    4.6350 cd        1 CX1      0.374400
     34 N32        -0.6010    2.8520    3.7250 nc        1 CX1     -0.698000
     35 N10         2.3140    1.1070    0.3370 n         1 CX1     -0.509900
     36 C9          2.7120   -0.1860    0.6170 c         1 CX1      0.733100
     37 O11         2.1660   -1.0270    1.3510 o         1 CX1     -0.583000
     38 O8          3.9330   -0.5030    0.0450 os        1 CX1     -0.445900
     39 C7          4.4300   -1.8100    0.3890 c3        1 CX1      0.192700
     40 C5          5.7800   -1.9640   -0.2250 ca        1 CX1     -0.085300
     41 C6          6.6030   -0.8620   -0.4800 ca        1 CX1     -0.113000
     42 C1          7.8730   -1.0500   -1.0240 ca        1 CX1     -0.134500
     43 C2          8.3300   -2.3350   -1.3110 ca        1 CX1     -0.134000
     44 C3          7.5110   -3.4360   -1.0590 ca        1 CX1     -0.134500
     45 C4          6.2390   -3.2540   -0.5210 ca        1 CX1     -0.113000
     46 H40         0.2660   -4.5740    0.4850 ha        1 CX1      0.150000
     47 H41         1.0740   -5.2360   -1.7870 ha        1 CX1      0.128000
     48 HO47       -0.6160   -4.2140   -4.7060 ho        1 CX1      0.408000
     49 H43        -2.2530   -3.1030   -3.5610 ha        1 CX1      0.128000
     50 H44        -3.0460   -2.4370   -1.3020 ha        1 CX1      0.150000
     51 H24        -2.5180   -4.0520    1.4960 hc        1 CX1      0.064200
     52 H24A       -1.0280   -3.0670    1.8000 hc        1 CX1      0.064200
     53 H23        -3.7390   -2.0550    0.6600 h1        1 CX1      0.075700
     54 HN22       -1.6870   -0.2920    1.7720 hn        1 CX1      0.321500
     55 H18        -1.5410    1.8260    0.9990 h1        1 CX1      0.086700
     56 H19        -3.8620    2.2050   -1.0180 hc        1 CX1      0.074700
     57 H19A       -3.9170    2.2670    0.7910 hc        1 CX1      0.074700
     58 H34        -3.8560    4.2590   -2.0890 ha        1 CX1      0.144500
     59 H35        -3.4280    6.7090   -2.1100 ha        1 CX1      0.126500
     60 H36        -2.3230    7.8050   -0.1590 ha        1 CX1      0.121000
     61 H37        -1.6520    6.4340    1.8190 ha        1 CX1      0.126500
     62 H38        -2.0850    3.9870    1.8500 ha        1 CX1      0.144500
     63 H17        -1.9490    3.0030   -2.5420 h1        1 CX1      0.053033
     64 H17A       -0.7180    1.7880   -3.1250 h1        1 CX1      0.053033
     65 H17B       -2.3690    1.2170   -2.5610 h1        1 CX1      0.053033
     66 H12         0.3560    0.5440    0.8420 h1        1 CX1      0.111700
     67 H13         1.7730    2.9900    1.8960 hc        1 CX1      0.068200
     68 H13A        0.1730    3.4250    1.1880 hc        1 CX1      0.068200
     69 H29         0.4540   -0.2210    2.8220 h4        1 CX1      0.208000
     70 H31        -1.7610    2.2920    5.4810 h5        1 CX1      0.054100
     71 HN10        2.7980    1.5850   -0.3950 hn        1 CX1      0.335500
     72 H7          4.4900   -1.8920    1.5090 h1        1 CX1      0.067700
     73 H7A         3.7070   -2.5770    0.0030 h1        1 CX1      0.067700
     74 H6          6.2350    0.1510   -0.2580 ha        1 CX1      0.142000
     75 H1          8.5140   -0.1790   -1.2270 ha        1 CX1      0.127500
     76 H2          9.3320   -2.4820   -1.7390 ha        1 CX1      0.124000
     77 H3          7.8670   -4.4510   -1.2880 ha        1 CX1      0.127500
     78 H4          5.5910   -4.1220   -0.3310 ha        1 CX1      0.142000
     79 HN30       -1.2340   -0.1360    4.7290 hn        1 CX1      0.357700
@<TRIPOS>BOND
     1    1    2 ar  
     2    1    7 ar  
     3    1   46 1   
     4    2    3 ar  
     5    2   47 1   
     6    3    4 1   
     7    3    5 ar  
     8    4   48 1   
     9    5    6 ar  
    10    5   49 1   
    11    6    7 ar  
    12    6   50 1   
    13    7    8 1   
    14    8    9 1   
    15    8   51 1   
    16    8   52 1   
    17    9   10 1   
    18    9   13 1   
    19    9   53 1   
    20   10   11 1   
    21   10   12 1   
    22   13   14 1   
    23   13   54 1   
    24   14   15 2   
    25   14   16 1   
    26   16   17 1   
    27   16   24 1   
    28   16   55 1   
    29   17   18 1   
    30   17   56 1   
    31   17   57 1   
    32   18   19 ar  
    33   18   23 ar  
    34   19   20 ar  
    35   19   58 1   
    36   20   21 ar  
    37   20   59 1   
    38   21   22 ar  
    39   21   60 1   
    40   22   23 ar  
    41   22   61 1   
    42   23   62 1   
    43   24   25 1   
    44   24   26 1   
    45   25   63 1   
    46   25   64 1   
    47   25   65 1   
    48   26   27 2   
    49   26   28 1   
    50   28   29 1   
    51   28   35 1   
    52   28   66 1   
    53   29   30 1   
    54   29   67 1   
    55   29   68 1   
    56   30   31 2   
    57   30   34 1   
    58   31   32 1   
    59   31   69 1   
    60   32   33 1   
    61   32   79 1   
    62   33   34 2   
    63   33   70 1   
    64   35   36 1   
    65   35   71 1   
    66   36   37 2   
    67   36   38 1   
    68   38   39 1   
    69   39   40 1   
    70   39   72 1   
    71   39   73 1   
    72   40   41 ar  
    73   40   45 ar  
    74   41   42 ar  
    75   41   74 1   
    76   42   43 ar  
    77   42   75 1   
    78   43   44 ar  
    79   43   76 1   
    80   44   45 ar  
    81   44   77 1   
    82   45   78 1   
@<TRIPOS>SUBSTRUCTURE
     1 CX1         1 TEMP              0 ****  ****    0 ROOT
