@<TRIPOS>MOLECULE
CX1
   82    85     1     0     0
SMALL
bcc


@<TRIPOS>ATOM
      1 C40        -2.9910   -0.6970    0.9630 ca        1 CX1     -0.086500
      2 C41        -4.1230   -0.0380    0.5050 ca        1 CX1     -0.179500
      3 C42        -4.0280    1.3240    0.1550 ca        1 CX1      0.163100
      4 O47        -5.1760    1.9110   -0.3020 oh        1 CX1     -0.475100
      5 C43        -2.8080    2.0090    0.2720 ca        1 CX1     -0.179500
      6 C44        -1.6860    1.3290    0.7340 ca        1 CX1     -0.086500
      7 C39        -1.7640   -0.0260    1.0750 ca        1 CX1     -0.178300
      8 C24        -0.5720   -0.7420    1.5950 c3        1 CX1     -0.031100
      9 C23         0.3560   -1.2330    0.4660 c3        1 CX1      0.018700
     10 C25         1.3820   -2.2230    1.0370 c         1 CX1      0.648100
     11 O26         2.1250   -1.9130    2.1180 oh        1 CX1     -0.533100
     12 O27         1.6450   -3.3410    0.5590 o         1 CX1     -0.621000
     13 N22        -0.3590   -1.8570   -0.6250 n         1 CX1     -0.544900
     14 C20         0.3250   -2.2750   -1.7350 c         1 CX1      0.645100
     15 O21         1.4450   -1.8410   -2.0640 o         1 CX1     -0.584100
     16 C18        -0.2370   -3.4780   -2.5400 c3        1 CX1      0.063500
     17 C19        -1.7600   -3.4340   -2.6580 c3        1 CX1     -0.044100
     18 C33        -2.2860   -4.2360   -3.7950 ca        1 CX1     -0.155300
     19 C34        -3.2160   -5.2570   -3.5650 ca        1 CX1     -0.128000
     20 C35        -3.7670   -5.9590   -4.6370 ca        1 CX1     -0.110500
     21 C36        -3.3940   -5.6450   -5.9450 ca        1 CX1     -0.091000
     22 C37        -2.4740   -4.6220   -6.1790 ca        1 CX1     -0.110500
     23 C38        -1.9260   -3.9160   -5.1100 ca        1 CX1     -0.128000
     24 N16         0.3570   -4.7210   -1.8910 n4        1 CX1     -0.570200
     25 C17        -0.5570   -5.8940   -1.8980 c3        1 CX1      0.086100
     26 C14         1.6510   -5.0860   -2.5690 c         1 CX1      0.522100
     27 O15         1.6270   -5.8670   -3.5090 o         1 CX1     -0.388100
     28 C12         2.9510   -4.4570   -2.0350 c3        1 CX1      0.081500
     29 C13         3.6430   -3.7570   -3.2260 c3        1 CX1     -0.100700
     30 C28         4.9380   -3.1540   -2.8660 cc        1 CX1      0.221600
     31 C29         5.5170   -2.0020   -3.4400 cd        1 CX1     -0.162600
     32 N30         6.7590   -1.8500   -2.8340 na        1 CX1     -0.291900
     33 C31         6.9080   -2.8920   -1.9150 cd        1 CX1      0.467400
     34 N32         5.8230   -3.6920   -1.9170 nc        1 CX1     -0.780000
     35 N10         3.8200   -5.5120   -1.4200 n4        1 CX1     -0.660800
     36 C9          3.1930   -6.1600   -0.2250 c         1 CX1      0.656100
     37 O11         1.9780   -6.3490   -0.1730 o         1 CX1     -0.518000
     38 O8          4.1050   -6.4500    0.6970 os        1 CX1     -0.379900
     39 C7          3.6760   -7.2400    1.8740 c3        1 CX1      0.219700
     40 C5          3.7350   -8.6850    1.5680 ca        1 CX1     -0.195300
     41 C6          4.9720   -9.3430    1.5300 ca        1 CX1     -0.091500
     42 C1          5.0250  -10.7170    1.3020 ca        1 CX1     -0.128000
     43 C2          3.8450  -11.4400    1.1150 ca        1 CX1     -0.075000
     44 C3          2.6110  -10.7880    1.1530 ca        1 CX1     -0.128000
     45 C4          2.5540   -9.4150    1.3770 ca        1 CX1     -0.091500
     46 H40        -3.0720   -1.7500    1.2740 ha        1 CX1      0.132500
     47 H41        -5.0950   -0.5480    0.4270 ha        1 CX1      0.163000
     48 HO47       -5.0130    2.8590   -0.4290 ho        1 CX1      0.440000
     49 H43        -2.7440    3.0770    0.0150 ha        1 CX1      0.163000
     50 H44        -0.7330    1.8690    0.8400 ha        1 CX1      0.132500
     51 H24        -0.8900   -1.6170    2.2240 hc        1 CX1      0.073200
     52 H24A        0.0270   -0.0510    2.2490 hc        1 CX1      0.073200
     53 H23         0.9490   -0.3530    0.0600 h1        1 CX1      0.115700
     54 HN22       -1.3470   -1.9630   -0.5390 hn        1 CX1      0.360500
     55 H18         0.1890   -3.4140   -3.5910 hx        1 CX1      0.134700
     56 H19        -2.0290   -2.3520   -2.8450 hc        1 CX1      0.088700
     57 H19A       -2.2550   -3.7370   -1.6970 hc        1 CX1      0.088700
     58 H34        -3.5370   -5.4940   -2.5390 ha        1 CX1      0.130000
     59 H35        -4.5070   -6.7530   -4.4500 ha        1 CX1      0.159500
     60 H36        -3.8350   -6.1960   -6.7920 ha        1 CX1      0.164000
     61 H37        -2.1910   -4.3620   -7.2120 ha        1 CX1      0.159500
     62 H38        -1.2300   -3.0860   -5.3090 ha        1 CX1      0.130000
     63 H17        -1.4700   -5.6580   -1.2880 hx        1 CX1      0.117700
     64 H17A       -0.8630   -6.1360   -2.9540 hx        1 CX1      0.117700
     65 H17B       -0.0160   -6.7680   -1.4400 hx        1 CX1      0.117700
     66 H12         2.7450   -3.6760   -1.2310 hx        1 CX1      0.179700
     67 H13         3.7790   -4.4900   -4.0700 hc        1 CX1      0.103700
     68 H13A        2.9420   -2.9420   -3.5700 hc        1 CX1      0.103700
     69 H29         5.1440   -1.3160   -4.2040 h4        1 CX1      0.208000
     70 H31         7.8030   -3.0210   -1.2890 h5        1 CX1      0.095100
     71 HN10        4.0390   -6.2400   -2.1120 hn        1 CX1      0.512800
     72 H7          2.6570   -6.8930    2.1810 h1        1 CX1      0.105200
     73 H7A         4.4660   -6.9170    2.6100 h1        1 CX1      0.105200
     74 H6          5.9020   -8.7760    1.6940 ha        1 CX1      0.138500
     75 H1          5.9980  -11.2330    1.2810 ha        1 CX1      0.157500
     76 H2          3.8880  -12.5290    0.9470 ha        1 CX1      0.161000
     77 H3          1.6810  -11.3630    1.0180 ha        1 CX1      0.157500
     78 H4          1.5790   -8.9040    1.4200 ha        1 CX1      0.138500
     79 HN30        7.4230   -1.1410   -3.0320 hn        1 CX1      0.338700
     80 H222        1.8810   -1.0400    2.4710 ho        1 CX1      0.461000
     81 H161        0.5850   -4.5090   -0.8960 hn        1 CX1      0.492800
     82 H102        4.7390   -5.0480   -1.1440 hn        1 CX1      0.512800
@<TRIPOS>BOND
     1    1    2 ar  
     2    1    7 ar  
     3    1   46 1   
     4    2    3 ar  
     5    2   47 1   
     6    3    4 1   
     7    3    5 ar  
     8    4   48 1   
     9    5    6 ar  
    10    5   49 1   
    11    6    7 ar  
    12    6   50 1   
    13    7    8 1   
    14    8    9 1   
    15    8   51 1   
    16    8   52 1   
    17    9   10 1   
    18    9   13 1   
    19    9   53 1   
    20   10   11 1   
    21   10   12 2   
    22   11   80 1   
    23   13   14 1   
    24   13   54 1   
    25   14   15 2   
    26   14   16 1   
    27   16   17 1   
    28   16   24 1   
    29   16   55 1   
    30   17   18 1   
    31   17   56 1   
    32   17   57 1   
    33   18   19 ar  
    34   18   23 ar  
    35   19   20 ar  
    36   19   58 1   
    37   20   21 ar  
    38   20   59 1   
    39   21   22 ar  
    40   21   60 1   
    41   22   23 ar  
    42   22   61 1   
    43   23   62 1   
    44   24   25 1   
    45   24   26 1   
    46   24   81 1   
    47   25   63 1   
    48   25   64 1   
    49   25   65 1   
    50   26   27 2   
    51   26   28 1   
    52   28   29 1   
    53   28   35 1   
    54   28   66 1   
    55   29   30 1   
    56   29   67 1   
    57   29   68 1   
    58   30   31 2   
    59   30   34 1   
    60   31   32 1   
    61   31   69 1   
    62   32   33 1   
    63   32   79 1   
    64   33   34 2   
    65   33   70 1   
    66   35   36 1   
    67   35   71 1   
    68   35   82 1   
    69   36   37 2   
    70   36   38 1   
    71   38   39 1   
    72   39   40 1   
    73   39   72 1   
    74   39   73 1   
    75   40   41 ar  
    76   40   45 ar  
    77   41   42 ar  
    78   41   74 1   
    79   42   43 ar  
    80   42   75 1   
    81   43   44 ar  
    82   43   76 1   
    83   44   45 ar  
    84   44   77 1   
    85   45   78 1   
@<TRIPOS>SUBSTRUCTURE
     1 CX1         1 TEMP              0 ****  ****    0 ROOT
