@<TRIPOS>MOLECULE
CX1
   82    85     1     0     0
SMALL
bcc


@<TRIPOS>ATOM
      1 C40        -2.8280   -0.5980    1.1020 ca        1 CX1     -0.086500
      2 C41        -3.9700    0.0730    0.6910 ca        1 CX1     -0.179500
      3 C42        -3.8720    1.4270    0.3140 ca        1 CX1      0.163100
      4 O47        -5.0320    2.0260   -0.0940 oh        1 CX1     -0.475100
      5 C43        -2.6360    2.0930    0.3580 ca        1 CX1     -0.179500
      6 C44        -1.5030    1.4010    0.7730 ca        1 CX1     -0.086500
      7 C39        -1.5860    0.0530    1.1400 ca        1 CX1     -0.178300
      8 C24        -0.3800   -0.6750    1.6100 c3        1 CX1     -0.031100
      9 C23         0.4810   -1.1980    0.4430 c3        1 CX1      0.018700
     10 C25         1.5190   -2.1960    0.9780 c         1 CX1      0.648100
     11 O26         2.3210   -1.8810    2.0140 oh        1 CX1     -0.533100
     12 O27         1.7400   -3.3260    0.5050 o         1 CX1     -0.621000
     13 N22        -0.3000   -1.8280   -0.5990 ns        1 CX1     -0.544900
     14 C20         0.3200   -2.2740   -1.7350 c         1 CX1      0.645100
     15 O21         1.4290   -1.8640   -2.1290 o         1 CX1     -0.585100
     16 C18        -0.3010   -3.4800   -2.4900 c3        1 CX1      0.063500
     17 C19        -1.8270   -3.4140   -2.5300 c3        1 CX1     -0.044100
     18 C33        -2.4250   -4.2240   -3.6250 ca        1 CX1     -0.155300
     19 C34        -3.3570   -5.2260   -3.3310 ca        1 CX1     -0.128000
     20 C35        -3.9730   -5.9350   -4.3610 ca        1 CX1     -0.110500
     21 C36        -3.6640   -5.6480   -5.6920 ca        1 CX1     -0.091000
     22 C37        -2.7410   -4.6440   -5.9900 ca        1 CX1     -0.110500
     23 C38        -2.1280   -3.9300   -4.9630 ca        1 CX1     -0.128000
     24 N16         0.3060   -4.7230   -1.8520 nx        1 CX1     -0.570200
     25 C17        -0.6250   -5.8810   -1.7930 c3        1 CX1      0.086100
     26 C14         1.5580   -5.1190   -2.5900 c         1 CX1      0.522100
     27 O15         1.4730   -5.9130   -3.5150 o         1 CX1     -0.388100
     28 C12         2.8930   -4.5030   -2.1340 c3        1 CX1      0.081500
     29 C13         3.5330   -3.8320   -3.3690 c3        1 CX1     -0.100700
     30 C28         4.8540   -3.2450   -3.0870 cc        1 CX1      0.221600
     31 C29         5.4200   -2.1110   -3.7070 cd        1 CX1     -0.162600
     32 N30         6.6940   -1.9710   -3.1680 na        1 CX1     -0.291900
     33 C31         6.8740   -3.0010   -2.2420 cd        1 CX1      0.467400
     34 N32         5.7790   -3.7830   -2.1760 nc        1 CX1     -0.780000
     35 N10         3.7760   -5.5640   -1.5480 ny        1 CX1     -0.660800
     36 C9          3.2020   -6.1860   -0.3140 c         1 CX1      0.656100
     37 O11         1.9890   -6.3520   -0.1960 o         1 CX1     -0.518000
     38 O8          4.1570   -6.4790    0.5630 os        1 CX1     -0.379900
     39 C7          3.7770   -7.2470    1.7720 c3        1 CX1      0.219700
     40 C5          3.7950   -8.6960    1.4820 ca        1 CX1     -0.195300
     41 C6          5.0170   -9.3770    1.3880 ca        1 CX1     -0.091500
     42 C1          5.0340  -10.7540    1.1760 ca        1 CX1     -0.128000
     43 C2          3.8340  -11.4590    1.0600 ca        1 CX1     -0.075000
     44 C3          2.6150  -10.7840    1.1540 ca        1 CX1     -0.128000
     45 C4          2.5930   -9.4070    1.3620 ca        1 CX1     -0.091500
     46 H40        -2.9090   -1.6450    1.4340 ha        1 CX1      0.132500
     47 H41        -4.9530   -0.4220    0.6710 ha        1 CX1      0.163000
     48 HO47       -4.8600    2.9690   -0.2450 ho        1 CX1      0.440000
     49 H43        -2.5680    3.1550    0.0790 ha        1 CX1      0.163000
     50 H44        -0.5370    1.9270    0.8210 ha        1 CX1      0.132500
     51 H24         0.2620    0.0170    2.2210 hc        1 CX1      0.073200
     52 H24A       -0.6800   -1.5340    2.2680 hc        1 CX1      0.073200
     53 H23         1.0660   -0.3350   -0.0070 h1        1 CX1      0.115700
     54 HN22        2.1090   -1.0000    2.3650 ho        1 CX1      0.461000
     55 H18         0.0710   -3.4400   -3.5620 hx        1 CX1      0.134700
     56 H19        -2.2760   -3.6930   -1.5400 hc        1 CX1      0.088700
     57 H19A       -2.0890   -2.3310   -2.7200 hc        1 CX1      0.088700
     58 H34        -3.6280   -5.4420   -2.2860 ha        1 CX1      0.130000
     59 H35        -4.7160   -6.7140   -4.1240 ha        1 CX1      0.159500
     60 H36        -4.1570   -6.2040   -6.5060 ha        1 CX1      0.164000
     61 H37        -2.5090   -4.4040   -7.0400 ha        1 CX1      0.159500
     62 H38        -1.4300   -3.1160   -5.2100 ha        1 CX1      0.130000
     63 H17        -1.5010   -5.6210   -1.1410 hx        1 CX1      0.117700
     64 H17A       -0.9890   -6.1340   -2.8280 hx        1 CX1      0.117700
     65 H17B       -0.0750   -6.7560   -1.3500 hx        1 CX1      0.117700
     66 H12         2.7420   -3.7080   -1.3320 hx        1 CX1      0.179700
     67 H13         2.8280   -3.0110   -3.6900 hc        1 CX1      0.104200
     68 H13A        3.6130   -4.5800   -4.2080 hc        1 CX1      0.104200
     69 H29         5.0190   -1.4310   -4.4620 h4        1 CX1      0.208000
     70 H31         7.7980   -3.1350   -1.6610 h5        1 CX1      0.095100
     71 HN10        4.7150   -5.1110   -1.3270 hn        1 CX1      0.512800
     72 H7          2.7810   -6.8780    2.1270 h1        1 CX1      0.105200
     73 H7A         4.6100   -6.9290    2.4610 h1        1 CX1      0.105200
     74 H6          5.9630   -8.8240    1.4960 ha        1 CX1      0.138500
     75 H1          5.9960  -11.2880    1.1110 ha        1 CX1      0.157500
     76 H2          3.8500  -12.5500    0.9040 ha        1 CX1      0.161000
     77 H3          1.6700  -11.3440    1.0750 ha        1 CX1      0.157500
     78 H4          1.6310   -8.8790    1.4500 ha        1 CX1      0.138500
     79 HN30        7.3580   -1.2760   -3.4110 hn        1 CX1      0.338700
     80 H222       -1.2830   -1.9160   -0.4600 hn        1 CX1      0.360500
     81 H161        0.5890   -4.4990   -0.8740 hn        1 CX1      0.492800
     82 H102        3.9490   -6.3050   -2.2410 hn        1 CX1      0.512800
@<TRIPOS>BOND
     1    1    2 ar  
     2    1    7 ar  
     3    1   46 1   
     4    2    3 ar  
     5    2   47 1   
     6    3    4 1   
     7    3    5 ar  
     8    4   48 1   
     9    5    6 ar  
    10    5   49 1   
    11    6    7 ar  
    12    6   50 1   
    13    7    8 1   
    14    8    9 1   
    15    8   51 1   
    16    8   52 1   
    17    9   10 1   
    18    9   13 1   
    19    9   53 1   
    20   10   11 1   
    21   10   12 2   
    22   11   54 1   
    23   13   14 1   
    24   13   80 1   
    25   14   15 2   
    26   14   16 1   
    27   16   17 1   
    28   16   24 1   
    29   16   55 1   
    30   17   18 1   
    31   17   56 1   
    32   17   57 1   
    33   18   19 ar  
    34   18   23 ar  
    35   19   20 ar  
    36   19   58 1   
    37   20   21 ar  
    38   20   59 1   
    39   21   22 ar  
    40   21   60 1   
    41   22   23 ar  
    42   22   61 1   
    43   23   62 1   
    44   24   25 1   
    45   24   26 1   
    46   24   81 1   
    47   25   63 1   
    48   25   64 1   
    49   25   65 1   
    50   26   27 2   
    51   26   28 1   
    52   28   29 1   
    53   28   35 1   
    54   28   66 1   
    55   29   30 1   
    56   29   67 1   
    57   29   68 1   
    58   30   31 2   
    59   30   34 1   
    60   31   32 1   
    61   31   69 1   
    62   32   33 1   
    63   32   79 1   
    64   33   34 2   
    65   33   70 1   
    66   35   36 1   
    67   35   71 1   
    68   35   82 1   
    69   36   37 2   
    70   36   38 1   
    71   38   39 1   
    72   39   40 1   
    73   39   72 1   
    74   39   73 1   
    75   40   41 ar  
    76   40   45 ar  
    77   41   42 ar  
    78   41   74 1   
    79   42   43 ar  
    80   42   75 1   
    81   43   44 ar  
    82   43   76 1   
    83   44   45 ar  
    84   44   77 1   
    85   45   78 1   
@<TRIPOS>SUBSTRUCTURE
     1 CX1         1 TEMP              0 ****  ****    0 ROOT
