@<TRIPOS>MOLECULE
CX1
   79    72     1     0     0
SMALL
bcc


@<TRIPOS>ATOM
      1 C40         3.6160   -2.1580   -6.1630 c1        1 CX1     -0.087000
      2 C41         4.9180   -2.4470   -6.5210 c1        1 CX1     -0.218000
      3 C42         5.5870   -3.5240   -5.9210 c1        1 CX1      0.050000
      4 O47         6.9460   -3.7770   -6.2320 o         1 CX1     -0.270000
      5 C43         4.9450   -4.2920   -4.9750 c2        1 CX1     -0.172000
      6 C44         3.6360   -4.0010   -4.6170 c1        1 CX1     -0.105000
      7 C39         2.9710   -2.9320   -5.2120 c1        1 CX1     -0.082000
      8 C24         1.5540   -2.6750   -4.8890 c3        1 CX1     -0.119000
      9 C23         1.4380   -1.3680   -4.1430 c3        1 CX1     -0.063000
     10 C25         1.5570   -0.2210   -5.1080 c2        1 CX1      0.319000
     11 O26         1.9280    0.9320   -4.6900 o         1 CX1     -0.579500
     12 O27         1.2690   -0.3880   -6.3270 o         1 CX1     -0.579500
     13 N22         0.1560   -1.3070   -3.4770 n         1 CX1     -0.300000
     14 C20        -0.4990   -0.0220   -3.2630 c2        1 CX1      0.277000
     15 O21        -0.2180    0.9360   -3.9770 o         1 CX1     -0.384000
     16 C18        -1.4620    0.1650   -2.0530 c3        1 CX1     -0.005000
     17 C19        -2.6410    1.0500   -2.4660 c3        1 CX1     -0.137000
     18 C33        -3.9890    0.1870   -2.4470 c2        1 CX1     -0.064000
     19 C34        -4.5430   -0.2570   -3.6370 c2        1 CX1     -0.124000
     20 C35        -5.7180   -1.0110   -3.6210 c1        1 CX1     -0.140000
     21 C36        -6.3370   -1.3200   -2.4030 c1        1 CX1     -0.136000
     22 C37        -5.7840   -0.8770   -1.2070 c1        1 CX1     -0.136000
     23 C38        -4.6140   -0.1250   -1.2200 c1        1 CX1     -0.126000
     24 N16        -0.7730    0.7700   -0.9920 n         1 CX1     -0.317000
     25 C17         0.3650    1.7350   -1.2800 c3        1 CX1     -0.114000
     26 C14        -1.2810    0.6270    0.3870 c2        1 CX1      0.301000
     27 O15        -2.4250    0.2210    0.5790 o         1 CX1     -0.400000
     28 C12        -0.4140    1.0800    1.5790 c3        1 CX1      0.022000
     29 C13         0.8590    0.2350    1.6400 c3        1 CX1     -0.110000
     30 C28         2.0100    1.0910    2.1180 c2        1 CX1     -0.167000
     31 C29         3.2800    1.1180    1.5710 c1        1 CX1     -0.107000
     32 N30         4.0580    1.8720    2.3680 n2        1 CX1     -0.212000
     33 C31         3.2930    2.3180    3.4060 c1        1 CX1     -0.138000
     34 N32         2.0270    1.8280    3.2420 n2        1 CX1     -0.146000
     35 N10        -1.1360    0.9200    2.7650 n         1 CX1     -0.312000
     36 C9         -0.5960    1.4430    4.0250 c2        1 CX1      0.405000
     37 O11         0.4940    2.0440    4.0320 o         1 CX1     -0.402000
     38 O8         -1.3890    1.3810    5.2240 os        1 CX1     -0.285000
     39 C7         -0.6820    0.8660    6.3660 c3        1 CX1      0.031000
     40 C5         -1.2300    1.5230    7.6500 c2        1 CX1     -0.096000
     41 C6         -0.5480    2.5940    8.2280 c2        1 CX1     -0.123000
     42 C1         -0.9730    3.1150    9.4400 c1        1 CX1     -0.136000
     43 C2         -2.0730    2.5740   10.0790 c1        1 CX1     -0.136000
     44 C3         -2.7570    1.5010    9.5030 c1        1 CX1     -0.136000
     45 C4         -2.3330    0.9790    8.2900 c1        1 CX1     -0.106000
     46 H40         3.0930   -1.4840   -6.6910 ha        1 CX1      0.195000
     47 H41         5.3780   -1.8960   -7.1990 ha        1 CX1      0.122000
     48 HO47        7.0300   -3.9120   -7.1000 ho        1 CX1      0.206000
     49 H43         5.4060   -5.0360   -4.5600 ha        1 CX1      0.132000
     50 H44         3.1970   -4.5150   -3.9110 ha        1 CX1      0.131000
     51 H24         1.2160   -3.3900   -4.3380 hc        1 CX1      0.113500
     52 H24A        1.0470   -2.6280   -5.6950 hc        1 CX1      0.113500
     53 H23         2.1570   -1.3080   -3.4760 h1        1 CX1      0.094000
     54 HN22       -0.2380   -2.0690   -3.1880 hn        1 CX1      0.215000
     55 H18        -1.7990   -0.7130   -1.7640 h1        1 CX1      0.139000
     56 H19        -2.4900    1.3940   -3.3620 hc        1 CX1      0.112500
     57 H19A       -2.7240    1.8060   -1.8310 hc        1 CX1      0.112500
     58 H34        -4.1230   -0.0460   -4.4680 ha        1 CX1      0.135000
     59 H35        -6.1160   -1.3300   -4.4760 ha        1 CX1      0.120000
     60 H36        -7.1350   -1.8000   -2.3950 ha        1 CX1      0.123750
     61 H37        -6.2290   -1.0990   -0.3350 ha        1 CX1      0.123750
     62 H38        -4.2180    0.1850   -0.3700 ha        1 CX1      0.164000
     63 H17         0.3800    1.9480   -2.2320 h1        1 CX1      0.104333
     64 H17A        1.1940    1.3320   -1.0330 h1        1 CX1      0.104333
     65 H17B        0.2310    2.5780   -0.7510 h1        1 CX1      0.104333
     66 H12        -0.1820    1.9940    1.4710 h1        1 CX1      0.151000
     67 H13         0.7310   -0.4860    2.2430 hc        1 CX1      0.128000
     68 H13A        1.0560   -0.1060    0.7750 hc        1 CX1      0.128000
     69 H29         3.5770    0.6210    0.7730 DU        1 CX1      0.225333
     70 H31         3.6060    2.9020    4.1600 DU        1 CX1      0.225333
     71 HN10       -1.9950    0.5630    2.7400 hn        1 CX1      0.241000
     72 H7         -0.8090   -0.1240    6.4190 h1        1 CX1      0.113500
     73 H7A         0.2830    1.0700    6.2770 h1        1 CX1      0.113500
     74 H6          0.2550    2.9910    7.7630 ha        1 CX1      0.130000
     75 H1         -0.4900    3.8520    9.8480 ha        1 CX1      0.124000
     76 H2         -2.3770    2.9500   10.9510 ha        1 CX1      0.123750
     77 H3         -3.5620    1.1060    9.9690 ha        1 CX1      0.123750
     78 H4         -2.7930    0.1900    7.9010 ha        1 CX1      0.150000
     79 HN30        4.9530    2.0550    2.2350 DU        1 CX1      0.225333
@<TRIPOS>BOND
     1    1    7 1   
     2    1   46 1   
     3    2    3 1   
     4    2   47 1   
     5    3    5 1   
     6    4   48 1   
     7    5    6 1   
     8    5   49 1   
     9    6   50 1   
    10    7    8 1   
    11    8    9 1   
    12    8   51 1   
    13    8   52 1   
    14    9   10 1   
    15    9   13 1   
    16    9   53 1   
    17   10   11 1   
    18   10   12 1   
    19   13   14 1   
    20   13   54 1   
    21   14   15 1   
    22   14   16 1   
    23   16   17 1   
    24   16   24 1   
    25   16   55 1   
    26   17   18 1   
    27   17   56 1   
    28   17   57 1   
    29   18   19 1   
    30   18   23 1   
    31   19   20 1   
    32   19   58 1   
    33   20   59 1   
    34   21   22 1   
    35   21   60 1   
    36   22   61 1   
    37   23   62 1   
    38   24   25 1   
    39   24   26 1   
    40   25   63 1   
    41   25   64 1   
    42   25   65 1   
    43   26   27 1   
    44   26   28 1   
    45   28   29 1   
    46   28   35 1   
    47   28   66 1   
    48   29   30 1   
    49   29   67 1   
    50   29   68 1   
    51   30   31 1   
    52   30   34 1   
    53   31   32 1   
    54   32   33 1   
    55   33   34 1   
    56   35   36 1   
    57   35   71 1   
    58   36   37 1   
    59   36   38 1   
    60   38   39 1   
    61   39   40 1   
    62   39   72 1   
    63   39   73 1   
    64   40   41 1   
    65   40   45 1   
    66   41   42 1   
    67   41   74 1   
    68   42   75 1   
    69   43   44 1   
    70   43   76 1   
    71   44   77 1   
    72   45   78 1   
@<TRIPOS>SUBSTRUCTURE
     1 CX1         1 TEMP              0 ****  ****    0 ROOT
