@<TRIPOS>MOLECULE
CX1
   82    85     1     0     0
SMALL
bcc


@<TRIPOS>ATOM
      1 C40        -3.1170   -0.8120    0.9170 ca        1 CX1     -0.086500
      2 C41        -4.2330   -0.1450    0.4340 ca        1 CX1     -0.179500
      3 C42        -4.1370    1.2310    0.1410 ca        1 CX1      0.163100
      4 O47        -5.2690    1.8250   -0.3440 oh        1 CX1     -0.475100
      5 C43        -2.9300    1.9210    0.3400 ca        1 CX1     -0.179500
      6 C44        -1.8230    1.2320    0.8250 ca        1 CX1     -0.086500
      7 C39        -1.9030   -0.1360    1.1100 ca        1 CX1     -0.178300
      8 C24        -0.7280   -0.8610    1.6540 c3        1 CX1     -0.031100
      9 C23         0.2550   -1.3000    0.5500 c3        1 CX1      0.018700
     10 C25         1.2650   -2.3020    1.1280 c         1 CX1      0.648100
     11 O26         1.9560   -2.0280    2.2520 oh        1 CX1     -0.533100
     12 O27         1.5610   -3.3990    0.6190 o         1 CX1     -0.621000
     13 N22        -0.4050   -1.8870   -0.5950 n         1 CX1     -0.544900
     14 C20         0.3320   -2.2550   -1.6890 c         1 CX1      0.645100
     15 O21         1.4610   -1.7980   -1.9510 o         1 CX1     -0.585100
     16 C18        -0.1800   -3.4300   -2.5640 c3        1 CX1      0.063500
     17 C19        -1.6970   -3.3960   -2.7470 c3        1 CX1     -0.044100
     18 C33        -2.1640   -4.1570   -3.9370 ca        1 CX1     -0.155300
     19 C34        -3.0930   -5.1950   -3.7880 ca        1 CX1     -0.128000
     20 C35        -3.5880   -5.8590   -4.9100 ca        1 CX1     -0.110500
     21 C36        -3.1610   -5.4910   -6.1870 ca        1 CX1     -0.091000
     22 C37        -2.2430   -4.4510   -6.3400 ca        1 CX1     -0.110500
     23 C38        -1.7500   -3.7820   -5.2210 ca        1 CX1     -0.128000
     24 N16         0.3970   -4.6930   -1.9370 n4        1 CX1     -0.570200
     25 C17        -0.5030   -5.8730   -2.0310 c3        1 CX1      0.086100
     26 C14         1.7240   -5.0190   -2.5710 c         1 CX1      0.522100
     27 O15         1.7500   -5.7630   -3.5410 o         1 CX1     -0.388100
     28 C12         2.9930   -4.4000   -1.9560 c3        1 CX1      0.081500
     29 C13         3.7280   -3.6470   -3.0860 c3        1 CX1     -0.100700
     30 C28         5.0000   -3.0460   -2.6460 cc        1 CX1      0.221600
     31 C29         5.5900   -1.8670   -3.1470 cd        1 CX1     -0.162600
     32 N30         6.8020   -1.7280   -2.4810 na        1 CX1     -0.291900
     33 C31         6.9220   -2.8040   -1.5980 cd        1 CX1      0.467400
     34 N32         5.8480   -3.6140   -1.6800 nc        1 CX1     -0.780000
     35 N10         3.8450   -5.4710   -1.3450 n4        1 CX1     -0.660800
     36 C9          3.1730   -6.1730   -0.2060 c         1 CX1      0.656100
     37 O11         1.9590   -6.3740   -0.2160 o         1 CX1     -0.518000
     38 O8          4.0480   -6.4940    0.7420 os        1 CX1     -0.379900
     39 C7          3.5760   -7.3350    1.8660 c3        1 CX1      0.219700
     40 C5          3.6620   -8.7660    1.5030 ca        1 CX1     -0.195300
     41 C6          4.9060   -9.4110    1.4920 ca        1 CX1     -0.091500
     42 C1          4.9820  -10.7740    1.2100 ca        1 CX1     -0.128000
     43 C2          3.8200  -11.4990    0.9420 ca        1 CX1     -0.075000
     44 C3          2.5780  -10.8590    0.9530 ca        1 CX1     -0.128000
     45 C4          2.4980   -9.4960    1.2300 ca        1 CX1     -0.091500
     46 H40        -3.2000   -1.8770    1.1820 ha        1 CX1      0.132500
     47 H41        -5.1960   -0.6590    0.2920 ha        1 CX1      0.163000
     48 HO47       -5.1100    2.7790   -0.4270 ho        1 CX1      0.440000
     49 H43        -2.8650    2.9980    0.1270 ha        1 CX1      0.163000
     50 H44        -0.8810    1.7760    0.9940 ha        1 CX1      0.132500
     51 H24        -0.1660   -0.1910    2.3610 hc        1 CX1      0.073200
     52 H24A       -1.0650   -1.7630    2.2340 hc        1 CX1      0.073200
     53 H23         0.8560   -0.3990    0.2050 h1        1 CX1      0.115700
     54 HN22       -1.3940   -2.0050   -0.5570 hn        1 CX1      0.360500
     55 H18         0.2910   -3.3230   -3.5910 hx        1 CX1      0.134700
     56 H19        -1.9690   -2.3100   -2.9040 hc        1 CX1      0.088700
     57 H19A       -2.2310   -3.7410   -1.8220 hc        1 CX1      0.088700
     58 H34        -3.4560   -5.4750   -2.7880 ha        1 CX1      0.130000
     59 H35        -4.3280   -6.6660   -4.7880 ha        1 CX1      0.159500
     60 H36        -3.5590   -6.0110   -7.0740 ha        1 CX1      0.164000
     61 H37        -1.9180   -4.1470   -7.3490 ha        1 CX1      0.159500
     62 H38        -1.0550   -2.9400   -5.3560 ha        1 CX1      0.130000
     63 H17        -1.4440   -5.6700   -1.4530 hx        1 CX1      0.117700
     64 H17A        0.0270   -6.7600   -1.5840 hx        1 CX1      0.117700
     65 H17B       -0.7590   -6.0760   -3.1080 hx        1 CX1      0.117700
     66 H12         2.7430   -3.6540   -1.1310 hx        1 CX1      0.179700
     67 H13         3.9090   -4.3450   -3.9510 hc        1 CX1      0.104200
     68 H13A        3.0340   -2.8260   -3.4290 hc        1 CX1      0.104200
     69 H29         5.2440   -1.1550   -3.9000 h4        1 CX1      0.208000
     70 H31         7.7900   -2.9500   -0.9380 h5        1 CX1      0.095100
     71 HN10        4.1030   -6.1690   -2.0560 hn        1 CX1      0.512800
     72 H7          2.5410   -7.0100    2.1420 h1        1 CX1      0.105200
     73 H7A         4.3300   -7.0370    2.6480 h1        1 CX1      0.105200
     74 H6          5.8220   -8.8440    1.7200 ha        1 CX1      0.138500
     75 H1          5.9600  -11.2810    1.2100 ha        1 CX1      0.157500
     76 H2          3.8800  -12.5790    0.7310 ha        1 CX1      0.161000
     77 H3          1.6610  -11.4350    0.7540 ha        1 CX1      0.157500
     78 H4          1.5170   -8.9960    1.2520 ha        1 CX1      0.138500
     79 HN30        7.4660   -1.0060   -2.6210 hn        1 CX1      0.338700
     80 H222        1.6870   -1.1730    2.6280 ho        1 CX1      0.461000
     81 H161        0.5790   -4.5180   -0.9260 hn        1 CX1      0.492800
     82 H102        4.7450   -5.0100   -1.0100 hn        1 CX1      0.512800
@<TRIPOS>BOND
     1    1    2 ar  
     2    1    7 ar  
     3    1   46 1   
     4    2    3 ar  
     5    2   47 1   
     6    3    4 1   
     7    3    5 ar  
     8    4   48 1   
     9    5    6 ar  
    10    5   49 1   
    11    6    7 ar  
    12    6   50 1   
    13    7    8 1   
    14    8    9 1   
    15    8   51 1   
    16    8   52 1   
    17    9   10 1   
    18    9   13 1   
    19    9   53 1   
    20   10   11 1   
    21   10   12 2   
    22   11   80 1   
    23   13   14 1   
    24   13   54 1   
    25   14   15 2   
    26   14   16 1   
    27   16   17 1   
    28   16   24 1   
    29   16   55 1   
    30   17   18 1   
    31   17   56 1   
    32   17   57 1   
    33   18   19 ar  
    34   18   23 ar  
    35   19   20 ar  
    36   19   58 1   
    37   20   21 ar  
    38   20   59 1   
    39   21   22 ar  
    40   21   60 1   
    41   22   23 ar  
    42   22   61 1   
    43   23   62 1   
    44   24   25 1   
    45   24   26 1   
    46   24   81 1   
    47   25   63 1   
    48   25   64 1   
    49   25   65 1   
    50   26   27 2   
    51   26   28 1   
    52   28   29 1   
    53   28   35 1   
    54   28   66 1   
    55   29   30 1   
    56   29   67 1   
    57   29   68 1   
    58   30   31 2   
    59   30   34 1   
    60   31   32 1   
    61   31   69 1   
    62   32   33 1   
    63   32   79 1   
    64   33   34 2   
    65   33   70 1   
    66   35   36 1   
    67   35   71 1   
    68   35   82 1   
    69   36   37 2   
    70   36   38 1   
    71   38   39 1   
    72   39   40 1   
    73   39   72 1   
    74   39   73 1   
    75   40   41 ar  
    76   40   45 ar  
    77   41   42 ar  
    78   41   74 1   
    79   42   43 ar  
    80   42   75 1   
    81   43   44 ar  
    82   43   76 1   
    83   44   45 ar  
    84   44   77 1   
    85   45   78 1   
@<TRIPOS>SUBSTRUCTURE
     1 CX1         1 TEMP              0 ****  ****    0 ROOT
