@<TRIPOS>MOLECULE
CX2
   41    42     1     0     0
SMALL
bcc


@<TRIPOS>ATOM
      1 P          -2.6690    0.5270    0.3020 p5        1 CX2      1.434700
      2 S          -5.9630   -3.4490    0.1490 sh        1 CX2     -0.437900
      3 N1          3.6970    0.7800    0.1380 n         1 CX2     -0.382000
      4 C2          5.1170    0.9380   -0.0750 c         1 CX2      0.831900
      5 O2          5.6160    2.0690    0.1080 o         1 CX2     -0.636500
      6 N3          5.8950   -0.1530   -0.4930 nc        1 CX2     -0.733100
      7 C4          5.3030   -1.3490   -0.6510 cd        1 CX2      0.735500
      8 N4          6.0730   -2.4610   -0.9770 nh        1 CX2     -0.907800
      9 C5          3.8760   -1.5410   -0.4370 cd        1 CX2     -0.455600
     10 C6          3.1360   -0.4530   -0.0370 cc        1 CX2      0.090600
     11 C1'         2.8990    1.9310    0.5850 c3        1 CX2      0.293500
     12 C2'         2.1760    2.6740   -0.5570 c3        1 CX2     -0.125400
     13 C3'         0.6970    2.3040   -0.4070 c3        1 CX2      0.148100
     14 O3'        -0.0690    3.4810   -0.5280 oh        1 CX2     -0.627800
     15 C4'         0.5760    1.6950    1.0070 c3        1 CX2      0.066100
     16 N4'        -2.7670   -0.9970   -0.2350 n3        1 CX2     -0.957300
     17 O4'         1.9100    1.5040    1.5240 os        1 CX2     -0.429600
     18 C5'        -0.1640    0.3460    1.0450 c3        1 CX2      0.203400
     19 O5'        -1.4690    0.4910    1.4810 os        1 CX2     -0.563200
     20 C7'        -3.7090   -1.8950    0.3200 c3        1 CX2      0.225800
     21 C8'        -4.8100   -2.3570   -0.6380 c3        1 CX2     -0.004300
     22 OP1        -2.0100    1.3740   -0.7370 o         1 CX2     -0.849500
     23 HS         -6.3260   -2.6850    1.1690 hs        1 CX2      0.219800
     24 HN4         7.0030   -2.3070   -1.2890 hn        1 CX2      0.415300
     25 HN4A        5.5850   -3.2080   -1.4100 hn        1 CX2      0.415300
     26 H5          3.4080   -2.5210   -0.5660 ha        1 CX2      0.151000
     27 H6          2.0470   -0.5330    0.1660 h4        1 CX2      0.181000
     28 H1'         3.6030    2.6090    1.1530 h2        1 CX2      0.107700
     29 H2'         2.3130    3.7760   -0.4180 hc        1 CX2      0.070200
     30 H2'A        2.5610    2.4010   -1.5670 hc        1 CX2      0.070200
     31 H3'         0.3760    1.5600   -1.1880 h1        1 CX2      0.073700
     32 HO3'       -0.9860    3.1930   -0.6920 ho        1 CX2      0.468000
     33 H4'         0.0770    2.4180    1.7080 h1        1 CX2      0.096700
     34 HN4'       -2.2530   -1.3330   -1.0030 hn        1 CX2      0.403800
     35 H5'        -0.1410   -0.1300    0.0240 h1        1 CX2      0.009200
     36 H5'A        0.3710   -0.3270    1.7760 h1        1 CX2      0.009200
     37 H7'        -3.2030   -2.8320    0.7080 h1        1 CX2      0.048200
     38 H7'A       -4.1970   -1.3690    1.1970 h1        1 CX2      0.048200
     39 H8'        -4.3820   -2.9510   -1.4810 h1        1 CX2      0.068700
     40 H8'A       -5.3530   -1.4790   -1.0630 h1        1 CX2      0.068700
     41 OP3        -3.9010    0.9140    1.0300 o         1 CX2     -0.849500
@<TRIPOS>BOND
     1    1   16 1   
     2    1   19 1   
     3    1   22 1   
     4    1   41 1   
     5    2   21 1   
     6    2   23 1   
     7    3    4 1   
     8    3   10 1   
     9    3   11 1   
    10    4    5 2   
    11    4    6 1   
    12    6    7 2   
    13    7    8 1   
    14    7    9 1   
    15    8   24 1   
    16    8   25 1   
    17    9   10 2   
    18    9   26 1   
    19   10   27 1   
    20   11   12 1   
    21   11   17 1   
    22   11   28 1   
    23   12   13 1   
    24   12   29 1   
    25   12   30 1   
    26   13   14 1   
    27   13   15 1   
    28   13   31 1   
    29   14   32 1   
    30   15   17 1   
    31   15   18 1   
    32   15   33 1   
    33   16   20 1   
    34   16   34 1   
    35   18   19 1   
    36   18   35 1   
    37   18   36 1   
    38   20   21 1   
    39   20   37 1   
    40   20   38 1   
    41   21   39 1   
    42   21   40 1   
@<TRIPOS>SUBSTRUCTURE
     1 CX2         1 TEMP              0 ****  ****    0 ROOT
