@<TRIPOS>MOLECULE
CX2
   41    40     1     0     0
SMALL
bcc


@<TRIPOS>ATOM
      1 P           1.0340   -0.5280   -2.2350 p3        1 CX2      2.606000
      2 S           4.6730   -2.6330   -5.4830 sh        1 CX2     -0.080000
      3 N1         -1.3480    0.8510    2.5240 n         1 CX2     -0.276000
      4 C2          0.0760    1.0120    2.8100 c2        1 CX2      0.351000
      5 O2          0.7740    0.0340    2.9730 o         1 CX2     -0.366000
      6 N3          0.6420    2.3500    2.9840 n2        1 CX2     -0.308000
      7 C4         -0.2120    3.4800    3.0370 c1        1 CX2      0.208000
      8 N4          0.2930    4.7300    3.4770 n2        1 CX2     -0.345000
      9 C5         -1.6440    3.3270    2.7510 c2        1 CX2     -0.361000
     10 C6         -2.1910    1.9950    2.4550 c2        1 CX2      0.086000
     11 C1'        -1.9220   -0.4630    2.4720 c3        1 CX2      0.141000
     12 C2'        -3.1280   -0.4950    1.4490 c3        1 CX2     -0.203000
     13 C3'        -2.6180   -1.2630    0.2440 c3        1 CX2      0.033000
     14 O3'        -3.2310   -2.6110    0.1960 oh        1 CX2     -0.359000
     15 C4'        -1.3020   -1.3610    0.4310 c3        1 CX2     -0.049000
     16 N4'         2.5850   -1.0610   -2.4990 n2        1 CX2     -0.876000
     17 O4'        -1.0680   -1.3050    2.0130 os        1 CX2     -0.285000
     18 C5'        -0.6000   -0.2190   -0.2350 c3        1 CX2      0.045000
     19 O5'         0.6870   -0.6460   -0.6800 os        1 CX2     -0.748000
     20 C7'         3.0600   -1.2480   -3.8350 c3        1 CX2     -0.012000
     21 C8'         4.2600   -2.1750   -3.8210 c3        1 CX2     -0.272000
     22 OP1         0.0680   -1.3740   -3.0340 o         1 CX2     -1.177500
     23 HS          5.6000   -3.3670   -5.4710 hs        1 CX2      0.044000
     24 HN4         1.1740    4.8120    3.7050 hn        1 CX2      0.210500
     25 HN4A       -0.2600    5.4560    3.5200 hn        1 CX2      0.210500
     26 H5         -2.2450    4.0910    2.8470 ha        1 CX2      0.156000
     27 H6         -3.1440    1.8890    2.2640 h4        1 CX2      0.186000
     28 H1'        -2.2250   -0.7380    3.3640 h2        1 CX2      0.151000
     29 H2'        -3.8950   -0.9570    1.8450 hc        1 CX2      0.109500
     30 H2'A       -3.3750    0.4110    1.1920 hc        1 CX2      0.109500
     31 H3'        -2.8090   -0.7710   -0.5810 h1        1 CX2      0.108000
     32 HO3'       -3.9100   -2.6080   -0.3800 ho        1 CX2      0.270000
     33 H4'        -0.9750   -2.2120    0.0740 h1        1 CX2      0.127000
     34 HN4'        3.1480   -1.1960   -1.7930 hn        1 CX2      0.207000
     35 H5'        -1.1270    0.0850   -1.0040 h1        1 CX2      0.067500
     36 H5'A       -0.4980    0.5170    0.4020 h1        1 CX2      0.067500
     37 H7'         2.3490   -1.6430   -4.3820 h1        1 CX2      0.088500
     38 H7'A        3.3200   -0.3820   -4.2130 h1        1 CX2      0.088500
     39 H8'         4.0450   -2.9790   -3.3040 h1        1 CX2      0.113000
     40 H8'A        5.0220   -1.7170   -3.4090 h1        1 CX2      0.113000
     41 OP3         0.9180    0.9140   -2.6690 o         1 CX2     -1.177500
@<TRIPOS>BOND
     1    1   19 1   
     2    1   22 1   
     3    1   41 1   
     4    2   21 1   
     5    2   23 1   
     6    3    4 1   
     7    3   10 1   
     8    3   11 1   
     9    4    5 1   
    10    4    6 1   
    11    6    7 1   
    12    7    9 1   
    13    8   24 1   
    14    8   25 1   
    15    9   10 1   
    16    9   26 1   
    17   10   27 1   
    18   11   12 1   
    19   11   17 1   
    20   11   28 1   
    21   12   13 1   
    22   12   29 1   
    23   12   30 1   
    24   13   14 1   
    25   13   15 1   
    26   13   31 1   
    27   14   32 1   
    28   15   17 1   
    29   15   18 1   
    30   15   33 1   
    31   16   20 1   
    32   16   34 1   
    33   18   19 1   
    34   18   35 1   
    35   18   36 1   
    36   20   21 1   
    37   20   37 1   
    38   20   38 1   
    39   21   39 1   
    40   21   40 1   
@<TRIPOS>SUBSTRUCTURE
     1 CX2         1 TEMP              0 ****  ****    0 ROOT
