@<TRIPOS>MOLECULE
CX4
   28    30     1     0     0
SMALL
bcc


@<TRIPOS>ATOM
      1 CAF         0.3340   -0.1590   -0.1600 cx        1 CX4     -0.122400
      2 CAG         1.6380    0.3090    0.4120 cx        1 CX4     -0.122400
      3 CAP         0.4930   -0.0270    1.3320 cx        1 CX4     -0.157700
      4 CAH         0.5380   -1.2910    2.1530 c3        1 CX4      0.246800
      5 NAK         1.3480   -1.1500    3.3380 nh        1 CX4     -0.865900
      6 C6          1.4350   -2.1390    4.2940 ca        1 CX4      0.719200
      7 C5          2.2030   -1.8980    5.5220 ca        1 CX4     -0.304600
      8 CAD         2.8570   -0.6830    5.8270 ca        1 CX4     -0.081000
      9 CAB         3.5580   -0.5300    7.0000 ca        1 CX4     -0.146000
     10 CAL         3.6320   -1.6030    7.9200 ca        1 CX4      0.043400
     11 CLAA        4.5050   -1.3830    9.3620 cl        1 CX4     -0.085400
     12 CAE         3.0150   -2.8060    7.6640 ca        1 CX4     -0.180300
     13 C4          2.2810   -2.9850    6.4490 ca        1 CX4      0.451600
     14 N3          1.6670   -4.2000    6.2010 nb        1 CX4     -0.731000
     15 C2          1.0010   -4.2920    5.0500 ca        1 CX4      0.682900
     16 N1          0.8360   -3.3410    4.0770 nb        1 CX4     -0.793000
     17 HAF        -0.3140    0.5620   -0.6870 hc        1 CX4      0.076200
     18 HAFA        0.2740   -1.1690   -0.6050 hc        1 CX4      0.076200
     19 HAG         2.5110   -0.3680    0.3790 hc        1 CX4      0.076200
     20 HAGA        1.9310    1.3670    0.2910 hc        1 CX4      0.076200
     21 HAP        -0.0310    0.8060    1.8410 hc        1 CX4      0.082700
     22 HAH        -0.5190   -1.5720    2.4380 h1        1 CX4      0.060700
     23 HAHA        0.9580   -2.1380    1.5350 h1        1 CX4      0.060700
     24 HNAK        1.6610   -0.2400    3.5760 hn        1 CX4      0.437800
     25 HAD         2.8230    0.1670    5.1290 ha        1 CX4      0.129000
     26 HAB         4.0650    0.4190    7.2300 ha        1 CX4      0.150000
     27 HAE         3.0740   -3.6430    8.3790 ha        1 CX4      0.169000
     28 H2          0.5020   -5.2620    4.8350 h5        1 CX4      0.051100
@<TRIPOS>BOND
     1    1    2 1   
     2    1    3 1   
     3    1   17 1   
     4    1   18 1   
     5    2    3 1   
     6    2   19 1   
     7    2   20 1   
     8    3    4 1   
     9    3   21 1   
    10    4    5 1   
    11    4   22 1   
    12    4   23 1   
    13    5    6 1   
    14    5   24 1   
    15    6    7 ar  
    16    6   16 ar  
    17    7    8 ar  
    18    7   13 ar  
    19    8    9 ar  
    20    8   25 1   
    21    9   10 ar  
    22    9   26 1   
    23   10   11 1   
    24   10   12 ar  
    25   12   13 ar  
    26   12   27 1   
    27   13   14 ar  
    28   14   15 ar  
    29   15   16 ar  
    30   15   28 1   
@<TRIPOS>SUBSTRUCTURE
     1 CX4         1 TEMP              0 ****  ****    0 ROOT
