@<TRIPOS>MOLECULE
CX4
   29    31     1     0     0
SMALL
bcc


@<TRIPOS>ATOM
      1 CAF         0.4640   -0.2820   -0.2200 cx        1 CX4     -0.099900
      2 CAG         1.6500    0.3130    0.4670 cx        1 CX4     -0.099900
      3 CAP         0.4260   -0.0520    1.2730 cx        1 CX4     -0.222700
      4 CAH         0.4520   -1.2570    2.1640 c3        1 CX4      0.155800
      5 NAK         1.2360   -0.9640    3.4130 n4        1 CX4     -0.755700
      6 C6          1.3750   -2.0870    4.3710 ca        1 CX4      0.522200
      7 C5          2.1840   -1.8660    5.5460 ca        1 CX4     -0.259600
      8 CAD         2.8580   -0.6630    5.8640 ca        1 CX4     -0.140000
      9 CAB         3.6030   -0.5620    7.0130 ca        1 CX4     -0.067000
     10 CAL         3.7090   -1.6680    7.9010 ca        1 CX4      0.043400
     11 CLAA        4.6360   -1.5000    9.3000 cl        1 CX4     -0.008400
     12 CAE         3.0670   -2.8570    7.6290 ca        1 CX4     -0.149300
     13 C4          2.2840   -2.9900    6.4400 ca        1 CX4      0.439600
     14 N3          1.6400   -4.1810    6.1710 nb        1 CX4     -0.610000
     15 C2          0.9250   -4.2450    5.0500 ca        1 CX4      0.658900
     16 N1          0.7540   -3.2400    4.1130 nb        1 CX4     -0.666000
     17 HAF        -0.1740    0.3580   -0.8600 hc        1 CX4      0.095450
     18 HAFA        0.5220   -1.3170   -0.6050 hc        1 CX4      0.095450
     19 HAG         1.8820    1.3840    0.3150 hc        1 CX4      0.095450
     20 HAGA        2.5670   -0.2960    0.5710 hc        1 CX4      0.095450
     21 HAP        -0.2220    0.7650    1.6520 hc        1 CX4      0.108700
     22 HAH         0.9350   -2.1360    1.6480 hx        1 CX4      0.121200
     23 HAHA       -0.5960   -1.5480    2.4660 hx        1 CX4      0.121200
     24 HNAK        2.1840   -0.6680    3.1430 hn        1 CX4      0.460800
     25 HAD         2.7960    0.2130    5.2000 ha        1 CX4      0.130000
     26 HAB         4.1290    0.3780    7.2600 ha        1 CX4      0.178000
     27 HAE         3.1450   -3.7210    8.3160 ha        1 CX4      0.197000
     28 H2          0.3980   -5.1990    4.8160 h5        1 CX4      0.098100
     29 HAK2        0.7850   -0.1870    3.9160 hn        1 CX4      0.460800
@<TRIPOS>BOND
     1    1    2 1   
     2    1    3 1   
     3    1   17 1   
     4    1   18 1   
     5    2    3 1   
     6    2   19 1   
     7    2   20 1   
     8    3    4 1   
     9    3   21 1   
    10    4    5 1   
    11    4   22 1   
    12    4   23 1   
    13    5    6 1   
    14    5   24 1   
    15    5   29 1   
    16    6    7 ar  
    17    6   16 ar  
    18    7    8 ar  
    19    7   13 ar  
    20    8    9 ar  
    21    8   25 1   
    22    9   10 ar  
    23    9   26 1   
    24   10   11 1   
    25   10   12 ar  
    26   12   13 ar  
    27   12   27 1   
    28   13   14 ar  
    29   14   15 ar  
    30   15   16 ar  
    31   15   28 1   
@<TRIPOS>SUBSTRUCTURE
     1 CX4         1 TEMP              0 ****  ****    0 ROOT
