@<TRIPOS>MOLECULE
CX4
   28    30     1     0     0
SMALL
bcc


@<TRIPOS>ATOM
      1 CAF         5.7640   -0.7230   -0.0870 cx        1 CX4     -0.126900
      2 CAG         4.7880   -1.6550   -0.7390 cx        1 CX4     -0.126900
      3 CAP         4.3940   -0.9100    0.5090 cx        1 CX4     -0.152700
      4 CAH         3.4190    0.2360    0.4180 c3        1 CX4      0.236800
      5 NAK         2.0470   -0.2170    0.3820 nh        1 CX4     -0.851900
      6 C6          0.9960    0.6730    0.2400 ca        1 CX4      0.709200
      7 C5         -0.3670    0.1570    0.0620 ca        1 CX4     -0.300600
      8 CAD        -0.6920   -1.2150   -0.0270 ca        1 CX4     -0.081000
      9 CAB        -1.9940   -1.6250   -0.1970 ca        1 CX4     -0.145000
     10 CAL        -3.0290   -0.6630   -0.2810 ca        1 CX4      0.042400
     11 CLAA       -4.6280   -1.2000   -0.4940 cl        1 CX4     -0.084400
     12 CAE        -2.7600    0.6840   -0.1920 ca        1 CX4     -0.179300
     13 C4         -1.4130    1.1300   -0.0140 ca        1 CX4      0.448600
     14 N3         -1.1540    2.4860    0.0810 nb        1 CX4     -0.726000
     15 C2          0.1240    2.8260    0.2430 ca        1 CX4      0.680900
     16 N1          1.2240    2.0090    0.3200 nb        1 CX4     -0.787000
     17 HAF         6.6350   -1.1420    0.4490 hc        1 CX4      0.074700
     18 HAFA        6.0070    0.2330   -0.5840 hc        1 CX4      0.074700
     19 HAG         4.3340   -1.3640   -1.7030 hc        1 CX4      0.074700
     20 HAGA        4.9590   -2.7450   -0.6770 hc        1 CX4      0.074700
     21 HAP         4.3080   -1.4800    1.4550 hc        1 CX4      0.090700
     22 HAH         3.5480    0.9010    1.3220 h1        1 CX4      0.060200
     23 HAHA        3.6510    0.8600   -0.4960 h1        1 CX4      0.060200
     24 HNAK        1.9000   -1.1400    0.0450 hn        1 CX4      0.429800
     25 HAD         0.0890   -1.9860    0.0460 ha        1 CX4      0.132000
     26 HAB        -2.2410   -2.6950   -0.2650 ha        1 CX4      0.151000
     27 HAE        -3.5660    1.4340   -0.2540 ha        1 CX4      0.169000
     28 H2          0.3500    3.9120    0.3210 h5        1 CX4      0.052100
@<TRIPOS>BOND
     1    1    2 1   
     2    1    3 1   
     3    1   17 1   
     4    1   18 1   
     5    2    3 1   
     6    2   19 1   
     7    2   20 1   
     8    3    4 1   
     9    3   21 1   
    10    4    5 1   
    11    4   22 1   
    12    4   23 1   
    13    5    6 1   
    14    5   24 1   
    15    6    7 ar  
    16    6   16 ar  
    17    7    8 ar  
    18    7   13 ar  
    19    8    9 ar  
    20    8   25 1   
    21    9   10 ar  
    22    9   26 1   
    23   10   11 1   
    24   10   12 ar  
    25   12   13 ar  
    26   12   27 1   
    27   13   14 ar  
    28   14   15 ar  
    29   15   16 ar  
    30   15   28 1   
@<TRIPOS>SUBSTRUCTURE
     1 CX4         1 TEMP              0 ****  ****    0 ROOT
