@<TRIPOS>MOLECULE
CX4
   28    30     1     0     0
SMALL
bcc


@<TRIPOS>ATOM
      1 CAF         0.3200   -0.1450   -0.1500 cx        1 CX4     -0.122400
      2 CAG         1.6250    0.3220    0.4200 cx        1 CX4     -0.122400
      3 CAP         0.4830   -0.0180    1.3410 cx        1 CX4     -0.157700
      4 CAH         0.5300   -1.2850    2.1580 c3        1 CX4      0.246800
      5 NAK         1.3440   -1.1480    3.3410 nu        1 CX4     -0.865900
      6 C6          1.4350   -2.1410    4.2930 ca        1 CX4      0.720200
      7 C5          2.2090   -1.9040    5.5190 ca        1 CX4     -0.304600
      8 CAD         2.8640   -0.6900    5.8240 ca        1 CX4     -0.081000
      9 CAB         3.5710   -0.5410    6.9950 ca        1 CX4     -0.146000
     10 CAL         3.6480   -1.6170    7.9110 ca        1 CX4      0.043400
     11 ClAA        4.5270   -1.4020    9.3500 cl        1 CX4     -0.085400
     12 CAE         3.0290   -2.8190    7.6540 ca        1 CX4     -0.180300
     13 C4          2.2900   -2.9940    6.4410 ca        1 CX4      0.451600
     14 N3          1.6750   -4.2080    6.1920 nb        1 CX4     -0.731000
     15 C2          1.0040   -4.2960    5.0440 ca        1 CX4      0.682900
     16 N1          0.8360   -3.3410    4.0740 nb        1 CX4     -0.793000
     17 HAF        -0.3310    0.5780   -0.6740 hc        1 CX4      0.076200
     18 HAFA        0.2600   -1.1530   -0.5990 hc        1 CX4      0.076200
     19 HAG         2.4980   -0.3540    0.3820 hc        1 CX4      0.076200
     20 HAGA        1.9160    1.3800    0.3020 hc        1 CX4      0.076200
     21 HAP        -0.0410    0.8120    1.8550 hc        1 CX4      0.082700
     22 HAH         0.9490   -2.1300    1.5360 h1        1 CX4      0.060700
     23 HAHA       -0.5250   -1.5680    2.4450 h1        1 CX4      0.060700
     24 HNAK        1.6620   -0.2400    3.5790 hn        1 CX4      0.437800
     25 HAD         2.8280    0.1630    5.1300 ha        1 CX4      0.129000
     26 HAB         4.0790    0.4080    7.2270 ha        1 CX4      0.150000
     27 HAE         3.0900   -3.6580    8.3660 ha        1 CX4      0.169000
     28 H2          0.5030   -5.2650    4.8280 h5        1 CX4      0.051100
@<TRIPOS>BOND
     1    1    2 1   
     2    1    3 1   
     3    1   17 1   
     4    1   18 1   
     5    2    3 1   
     6    2   19 1   
     7    2   20 1   
     8    3    4 1   
     9    3   21 1   
    10    4    5 1   
    11    4   22 1   
    12    4   23 1   
    13    5    6 1   
    14    5   24 1   
    15    6    7 ar  
    16    6   16 ar  
    17    7    8 ar  
    18    7   13 ar  
    19    8    9 ar  
    20    8   25 1   
    21    9   10 ar  
    22    9   26 1   
    23   10   11 1   
    24   10   12 ar  
    25   12   13 ar  
    26   12   27 1   
    27   13   14 ar  
    28   14   15 ar  
    29   15   16 ar  
    30   15   28 1   
@<TRIPOS>SUBSTRUCTURE
     1 CX4         1 TEMP              0 ****  ****    0 ROOT
