@<TRIPOS>MOLECULE
CX5
   33    28     1     0     0
SMALL
bcc


@<TRIPOS>ATOM
      1 C1         -0.9280   -1.2960    0.6590 c1        1 CX5     -0.068000
      2 C2          0.4610   -1.2960    0.6590 c1        1 CX5     -0.096000
      3 C3          1.1600   -1.2960    1.8660 c1        1 CX5     -0.092500
      4 C4          0.4650   -1.2960    3.0710 c1        1 CX5     -0.092500
      5 C6         -0.9460   -1.2960    3.0730 c1        1 CX5     -0.044000
      6 C7         -2.9740   -1.2960    4.2550 c1        1 CX5     -0.102500
      7 C8         -3.6710   -1.2960    3.0490 c1        1 CX5     -0.102500
      8 C9          1.5730   -0.4850   -0.0090 c1        1 CX5      0.338000
      9 C11         2.2410    1.4120   -1.5720 c3        1 CX5     -0.035000
     10 C13        -0.2970    0.9060   -2.8430 c3        1 CX5     -0.181000
     11 C14         0.7050    1.7830   -3.4990 c3        1 CX5     -0.157000
     12 C5         -1.6350   -1.2960    1.8820 c1        1 CX5     -0.044000
     13 N1         -1.6290   -1.2960    4.2550 n1        1 CX5     -0.093000
     14 N2         -2.9990   -1.2960    1.8830 n1        1 CX5     -0.093000
     15 C10         2.0910    1.4540   -3.0810 c3        1 CX5     -0.181000
     16 N3          1.2400    0.5630   -0.9420 n2        1 CX5     -0.312000
     17 C12        -0.1270    0.8680   -1.3360 c3        1 CX5     -0.035000
     18 O1          2.7380   -0.7130    0.2610 o         1 CX5     -0.350000
     19 H1         -1.4170   -1.2960   -0.1870 ha        1 CX5      0.159000
     20 H2          2.1360   -1.2960    1.8660 ha        1 CX5      0.156000
     21 H3          0.9540   -1.2960    3.9160 ha        1 CX5      0.156000
     22 H4         -3.4630   -1.2960    5.1000 ha        1 CX5      0.173000
     23 H5         -4.6470   -1.2960    3.0490 ha        1 CX5      0.173000
     24 H6          2.1540    2.3180   -1.2200 h1        1 CX5      0.100250
     25 H7          3.1280    1.0700   -1.3520 h1        1 CX5      0.100250
     26 H8         -1.1920    1.2360   -3.0520 hc        1 CX5      0.089750
     27 H9         -0.2040    0.0000   -3.1940 hc        1 CX5      0.089750
     28 H10         0.6320    1.6780   -4.4670 hc        1 CX5      0.083000
     29 H11         0.5160    2.7110   -3.2650 hc        1 CX5      0.083000
     30 H12         2.6990    2.1280   -3.4410 hc        1 CX5      0.089750
     31 H13         2.3340    0.5820   -3.4480 hc        1 CX5      0.089750
     32 H14        -0.7220    0.1870   -0.9680 h1        1 CX5      0.100250
     33 H15        -0.3760    1.7380   -0.9680 h1        1 CX5      0.100250
@<TRIPOS>BOND
     1    1    2 1   
     2    1   19 1   
     3    2    8 1   
     4    3    4 1   
     5    3   20 1   
     6    4   21 1   
     7    5   12 1   
     8    6   13 1   
     9    6   22 1   
    10    7   14 1   
    11    7   23 1   
    12    8   18 1   
    13    9   15 1   
    14    9   16 1   
    15    9   24 1   
    16    9   25 1   
    17   10   11 1   
    18   10   17 1   
    19   10   26 1   
    20   10   27 1   
    21   11   15 1   
    22   11   28 1   
    23   11   29 1   
    24   15   30 1   
    25   15   31 1   
    26   16   17 1   
    27   17   32 1   
    28   17   33 1   
@<TRIPOS>SUBSTRUCTURE
     1 CX5         1 TEMP              0 ****  ****    0 ROOT
