@<TRIPOS>MOLECULE
CX5
   33    35     1     0     0
SMALL
bcc


@<TRIPOS>ATOM
      1 C1         -0.8640   -0.0940   -0.8690 ca        1 CX5     -0.126300
      2 C2         -0.0890    0.7550   -0.1110 ca        1 CX5     -0.121600
      3 C3         -0.6450    1.4730    0.9780 ca        1 CX5     -0.090000
      4 C4         -1.9680    1.3240    1.3130 ca        1 CX5     -0.162300
      5 C6         -2.8060    0.4470    0.5620 ca        1 CX5      0.294300
      6 C7         -4.8580   -0.5230    0.1560 ca        1 CX5      0.300900
      7 C8         -4.2920   -1.2450   -0.9670 ca        1 CX5      0.293900
      8 C9          1.3430    1.0160   -0.4520 c         1 CX5      0.661700
      9 C11         1.9630   -1.3420    0.0260 c3        1 CX5      0.078000
     10 C13         4.5540   -0.0610    0.2810 c3        1 CX5     -0.103400
     11 C14         4.3230   -1.4320    0.8800 c3        1 CX5     -0.079400
     12 C5         -2.2440   -0.2710   -0.5520 ca        1 CX5      0.272300
     13 N1         -4.1440    0.2970    0.9010 nb        1 CX5     -0.621000
     14 N2         -3.0260   -1.1290   -1.3150 nb        1 CX5     -0.617000
     15 C10         2.8640   -1.6330    1.2300 c3        1 CX5     -0.103400
     16 N3          2.2120   -0.0640   -0.6040 n         1 CX5     -0.448800
     17 C12         3.6110    0.1930   -0.8960 c3        1 CX5      0.078000
     18 O1          1.7270    2.1830   -0.6660 o         1 CX5     -0.590100
     19 H1         -0.4340   -0.6380   -1.7260 ha        1 CX5      0.164000
     20 H2          0.0030    2.1670    1.5370 ha        1 CX5      0.156000
     21 H3         -2.3990    1.8820    2.1600 ha        1 CX5      0.158000
     22 H4         -5.9240   -0.6500    0.4140 h4        1 CX5      0.036100
     23 H5         -4.9260   -1.9220   -1.5650 h4        1 CX5      0.036100
     24 H7          0.8880   -1.4150    0.3500 h1        1 CX5      0.060950
     25 H8          4.4030    0.7260    1.0650 hc        1 CX5      0.050700
     26 H9          5.6080    0.0250   -0.0870 hc        1 CX5      0.050700
     27 H10         4.6420   -2.2190    0.1470 hc        1 CX5      0.043700
     28 H11         4.9520   -1.5540    1.8000 hc        1 CX5      0.043700
     29 H12         2.5840   -0.9650    2.0860 hc        1 CX5      0.050700
     30 H13         2.6880   -2.6910    1.5530 hc        1 CX5      0.050700
     31 H14         3.7310    1.2580   -1.2450 h1        1 CX5      0.060950
     32 H15         3.8970   -0.4930   -1.7450 h1        1 CX5      0.060950
     33 H6          2.1440   -2.1360   -0.7560 h1        1 CX5      0.060950
@<TRIPOS>BOND
     1    1    2 ar  
     2    1   12 ar  
     3    1   19 1   
     4    2    3 ar  
     5    2    8 1   
     6    3    4 ar  
     7    3   20 1   
     8    4    5 ar  
     9    4   21 1   
    10    5   12 ar  
    11    5   13 ar  
    12    6    7 ar  
    13    6   13 ar  
    14    6   22 1   
    15    7   14 ar  
    16    7   23 1   
    17    8   16 1   
    18    8   18 2   
    19    9   15 1   
    20    9   16 1   
    21    9   24 1   
    22    9   33 1   
    23   10   11 1   
    24   10   17 1   
    25   10   25 1   
    26   10   26 1   
    27   11   15 1   
    28   11   27 1   
    29   11   28 1   
    30   12   14 ar  
    31   15   29 1   
    32   15   30 1   
    33   16   17 1   
    34   17   31 1   
    35   17   32 1   
@<TRIPOS>SUBSTRUCTURE
     1 CX5         1 TEMP              0 ****  ****    0 ROOT
