@<TRIPOS>MOLECULE
CX5
   33    35     1     0     0
SMALL
bcc


@<TRIPOS>ATOM
      1 C1         -0.0930    0.1340    0.0550 ca        1 CX5     -0.126300
      2 C2          1.2590   -0.1200    0.0160 ca        1 CX5     -0.121600
      3 C3          1.9970   -0.3250    1.2090 ca        1 CX5     -0.090000
      4 C4          1.3750   -0.2940    2.4320 ca        1 CX5     -0.162300
      5 C6         -0.0270   -0.0450    2.5200 ca        1 CX5      0.294300
      6 C7         -1.9510    0.2330    3.7610 ca        1 CX5      0.300900
      7 C8         -2.7020    0.4580    2.5410 ca        1 CX5      0.293900
      8 C9          2.0170   -0.1090   -1.2730 c         1 CX5      0.661700
      9 C11         0.7630   -2.0830   -2.1120 c3        1 CX5      0.078000
     10 C13         3.1210   -2.2090   -3.7980 c3        1 CX5     -0.103400
     11 C14         2.2390   -3.4280   -3.6350 c3        1 CX5     -0.079400
     12 C5         -0.7730    0.1780    1.3090 ca        1 CX5      0.272300
     13 N1         -0.6560   -0.0130    3.7580 nb        1 CX5     -0.621000
     14 N2         -2.1380    0.4320    1.3500 nb        1 CX5     -0.617000
     15 C10         1.5160   -3.4020   -2.3040 c3        1 CX5     -0.103400
     16 N3          1.5710   -0.9020   -2.3290 n         1 CX5     -0.448800
     17 C12         2.3310   -0.9200   -3.5660 c3        1 CX5      0.078000
     18 O1          2.9900    0.6590   -1.4130 o         1 CX5     -0.590100
     19 H1         -0.6640    0.3120   -0.8720 ha        1 CX5      0.164000
     20 H2          3.0840   -0.4920    1.1340 ha        1 CX5      0.156000
     21 H3          1.9500   -0.4540    3.3590 ha        1 CX5      0.158000
     22 H4         -2.4630    0.2630    4.7390 h4        1 CX5      0.036100
     23 H5         -3.7860    0.6610    2.5890 h4        1 CX5      0.036100
     24 H7         -0.0850   -2.0420   -2.8580 h1        1 CX5      0.060950
     25 H8          3.5480   -2.1800   -4.8330 hc        1 CX5      0.050700
     26 H9          3.9790   -2.2620   -3.0780 hc        1 CX5      0.050700
     27 H10         2.8600   -4.3580   -3.7090 hc        1 CX5      0.043700
     28 H11         1.4860   -3.4590   -4.4660 hc        1 CX5      0.043700
     29 H12         2.2520   -3.5450   -1.4710 hc        1 CX5      0.050700
     30 H13         0.7750   -4.2400   -2.2520 hc        1 CX5      0.050700
     31 H14         3.0370   -0.0430   -3.5850 h1        1 CX5      0.060950
     32 H15         1.5870   -0.7950   -4.4060 h1        1 CX5      0.060950
     33 H6          0.3160   -2.0660   -1.0800 h1        1 CX5      0.060950
@<TRIPOS>BOND
     1    1    2 ar  
     2    1   12 ar  
     3    1   19 1   
     4    2    3 ar  
     5    2    8 1   
     6    3    4 ar  
     7    3   20 1   
     8    4    5 ar  
     9    4   21 1   
    10    5   12 ar  
    11    5   13 ar  
    12    6    7 ar  
    13    6   13 ar  
    14    6   22 1   
    15    7   14 ar  
    16    7   23 1   
    17    8   16 1   
    18    8   18 2   
    19    9   15 1   
    20    9   16 1   
    21    9   24 1   
    22    9   33 1   
    23   10   11 1   
    24   10   17 1   
    25   10   25 1   
    26   10   26 1   
    27   11   15 1   
    28   11   27 1   
    29   11   28 1   
    30   12   14 ar  
    31   15   29 1   
    32   15   30 1   
    33   16   17 1   
    34   17   31 1   
    35   17   32 1   
@<TRIPOS>SUBSTRUCTURE
     1 CX5         1 TEMP              0 ****  ****    0 ROOT
