@<TRIPOS>MOLECULE
CX5
   33    35     1     0     0
SMALL
bcc


@<TRIPOS>ATOM
      1 C1         -0.1020    0.1290    0.0520 ca        1 CX5     -0.126300
      2 C2          1.2520   -0.1160    0.0140 ca        1 CX5     -0.121600
      3 C3          1.9920   -0.3120    1.2070 ca        1 CX5     -0.090000
      4 C4          1.3700   -0.2830    2.4300 ca        1 CX5     -0.162300
      5 C6         -0.0340   -0.0420    2.5170 ca        1 CX5      0.294300
      6 C7         -1.9590    0.2260    3.7580 ca        1 CX5      0.300900
      7 C8         -2.7120    0.4430    2.5380 ca        1 CX5      0.293900
      8 C9          2.0100   -0.1030   -1.2760 c         1 CX5      0.661700
      9 C11         0.7690   -2.0880   -2.1090 c3        1 CX5      0.078000
     10 C13         3.1280   -2.2030   -3.7950 c3        1 CX5     -0.103400
     11 C14         2.2540   -3.4270   -3.6280 c3        1 CX5     -0.079400
     12 C5         -0.7820    0.1720    1.3060 ca        1 CX5      0.272300
     13 N1         -0.6620   -0.0110    3.7550 nb        1 CX5     -0.621000
     14 N2         -2.1480    0.4170    1.3460 nb        1 CX5     -0.617000
     15 C10         1.5320   -3.4020   -2.2980 c3        1 CX5     -0.103400
     16 N3          1.5690   -0.9020   -2.3300 n         1 CX5     -0.448800
     17 C12         2.3280   -0.9190   -3.5670 c3        1 CX5      0.078000
     18 O1          2.9770    0.6710   -1.4190 o         1 CX5     -0.590100
     19 H1         -0.6730    0.3000   -0.8760 ha        1 CX5      0.164000
     20 H2          3.0800   -0.4720    1.1320 ha        1 CX5      0.156000
     21 H3          1.9460   -0.4360    3.3570 ha        1 CX5      0.158000
     22 H4         -2.4710    0.2550    4.7360 h4        1 CX5      0.036100
     23 H5         -3.7970    0.6380    2.5850 h4        1 CX5      0.036100
     24 H7          0.3230   -2.0710   -1.0760 h1        1 CX5      0.060950
     25 H8          3.5530   -2.1730   -4.8310 hc        1 CX5      0.050700
     26 H9          3.9860   -2.2480   -3.0760 hc        1 CX5      0.050700
     27 H10         1.5010   -3.4660   -4.4600 hc        1 CX5      0.043700
     28 H11         2.8810   -4.3530   -3.7000 hc        1 CX5      0.043700
     29 H12         2.2690   -3.5380   -1.4650 hc        1 CX5      0.050700
     30 H13         0.7970   -4.2460   -2.2430 hc        1 CX5      0.050700
     31 H14         1.5830   -0.8010   -4.4060 h1        1 CX5      0.060950
     32 H15         3.0290   -0.0360   -3.5880 h1        1 CX5      0.060950
     33 H6         -0.0790   -2.0560   -2.8540 h1        1 CX5      0.060950
@<TRIPOS>BOND
     1    1    2 ar  
     2    1   12 ar  
     3    1   19 1   
     4    2    3 ar  
     5    2    8 1   
     6    3    4 ar  
     7    3   20 1   
     8    4    5 ar  
     9    4   21 1   
    10    5   12 ar  
    11    5   13 ar  
    12    6    7 ar  
    13    6   13 ar  
    14    6   22 1   
    15    7   14 ar  
    16    7   23 1   
    17    8   16 1   
    18    8   18 2   
    19    9   15 1   
    20    9   16 1   
    21    9   24 1   
    22    9   33 1   
    23   10   11 1   
    24   10   17 1   
    25   10   25 1   
    26   10   26 1   
    27   11   15 1   
    28   11   27 1   
    29   11   28 1   
    30   12   14 ar  
    31   15   29 1   
    32   15   30 1   
    33   16   17 1   
    34   17   31 1   
    35   17   32 1   
@<TRIPOS>SUBSTRUCTURE
     1 CX5         1 TEMP              0 ****  ****    0 ROOT
