@<TRIPOS>MOLECULE
CX5
   33    35     1     0     0
SMALL
bcc


@<TRIPOS>ATOM
      1 C1         -0.0890    0.1380    0.0580 ca        1 CX5     -0.126300
      2 C2          1.2620   -0.1240    0.0210 ca        1 CX5     -0.121600
      3 C3          1.9970   -0.3400    1.2140 ca        1 CX5     -0.090000
      4 C4          1.3730   -0.3110    2.4360 ca        1 CX5     -0.162300
      5 C6         -0.0280   -0.0530    2.5220 ca        1 CX5      0.294300
      6 C7         -1.9530    0.2300    3.7600 ca        1 CX5      0.300900
      7 C8         -2.7000    0.4660    2.5400 ca        1 CX5      0.293900
      8 C9          2.0230   -0.1120   -1.2670 c         1 CX5      0.661700
      9 C11         0.7600   -2.0760   -2.1170 c3        1 CX5      0.078000
     10 C13         3.1220   -2.2080   -3.7980 c3        1 CX5     -0.103400
     11 C14         2.2330   -3.4230   -3.6410 c3        1 CX5     -0.079400
     12 C5         -0.7710    0.1790    1.3110 ca        1 CX5      0.272300
     13 N1         -0.6590   -0.0230    3.7590 nb        1 CX5     -0.621000
     14 N2         -2.1340    0.4410    1.3500 nb        1 CX5     -0.617000
     15 C10         1.5080   -3.3980   -2.3120 c3        1 CX5     -0.103400
     16 N3          1.5750   -0.8990   -2.3270 n         1 CX5     -0.448800
     17 C12         2.3370   -0.9160   -3.5630 c3        1 CX5      0.078000
     18 O1          3.0000    0.6520   -1.4030 o         1 CX5     -0.590100
     19 H1         -0.6560    0.3230   -0.8690 ha        1 CX5      0.164000
     20 H2          3.0830   -0.5130    1.1410 ha        1 CX5      0.156000
     21 H3          1.9440   -0.4780    3.3630 ha        1 CX5      0.158000
     22 H4         -2.4660    0.2590    4.7370 h4        1 CX5      0.036100
     23 H5         -3.7830    0.6740    2.5870 h4        1 CX5      0.036100
     24 H7          0.3110   -2.0610   -1.0850 h1        1 CX5      0.060950
     25 H8          3.5500   -2.1760   -4.8320 hc        1 CX5      0.050700
     26 H9          3.9780   -2.2680   -3.0760 hc        1 CX5      0.050700
     27 H10         2.8490   -4.3560   -3.7170 hc        1 CX5      0.043700
     28 H11         1.4820   -3.4470   -4.4750 hc        1 CX5      0.043700
     29 H12         0.7630   -4.2330   -2.2650 hc        1 CX5      0.050700
     30 H13         2.2410   -3.5480   -1.4780 hc        1 CX5      0.050700
     31 H14         3.0480   -0.0420   -3.5760 h1        1 CX5      0.060950
     32 H15         1.5960   -0.7840   -4.4030 h1        1 CX5      0.060950
     33 H6         -0.0850   -2.0290   -2.8640 h1        1 CX5      0.060950
@<TRIPOS>BOND
     1    1    2 ar  
     2    1   12 ar  
     3    1   19 1   
     4    2    3 ar  
     5    2    8 1   
     6    3    4 ar  
     7    3   20 1   
     8    4    5 ar  
     9    4   21 1   
    10    5   12 ar  
    11    5   13 ar  
    12    6    7 ar  
    13    6   13 ar  
    14    6   22 1   
    15    7   14 ar  
    16    7   23 1   
    17    8   16 1   
    18    8   18 2   
    19    9   15 1   
    20    9   16 1   
    21    9   24 1   
    22    9   33 1   
    23   10   11 1   
    24   10   17 1   
    25   10   25 1   
    26   10   26 1   
    27   11   15 1   
    28   11   27 1   
    29   11   28 1   
    30   12   14 ar  
    31   15   29 1   
    32   15   30 1   
    33   16   17 1   
    34   17   31 1   
    35   17   32 1   
@<TRIPOS>SUBSTRUCTURE
     1 CX5         1 TEMP              0 ****  ****    0 ROOT
