@<TRIPOS>MOLECULE
CX6
   31    33     1     0     0
SMALL
bcc


@<TRIPOS>ATOM
      1 O1          0.2060   -0.8570    1.6240 os        1 CX6     -0.220000
      2 O2          2.5630    1.1850   -0.9260 o         1 CX6     -0.335000
      3 N1          2.2330    0.1590    1.0430 n         1 CX6     -0.326000
      4 C1          1.6360   -0.8570    1.6240 c3        1 CX6      0.135000
      5 C2          2.1530   -0.8570    3.1820 c3        1 CX6     -0.170000
      6 C3          3.4160   -0.5280    3.1610 c3        1 CX6     -0.176000
      7 C4          3.5700    0.3700    1.8370 c3        1 CX6     -0.039000
      8 C5          1.8580    0.4640   -0.2410 c2        1 CX6      0.353000
      9 C6          0.3860    0.2850   -0.5880 c2        1 CX6     -0.192000
     10 C7         -0.4610   -0.3290    0.4240 c2        1 CX6      0.107000
     11 C8         -1.8570   -0.4940    0.1830 c2        1 CX6     -0.160000
     12 C9         -2.4140   -0.0660   -1.0290 c1        1 CX6      0.067000
     13 C10        -1.5500    0.5610   -2.0610 c1        1 CX6     -0.034000
     14 C11        -0.1780    0.7220   -1.8210 c2        1 CX6     -0.029000
     15 O3         -3.8610   -0.1520   -1.3150 os        1 CX6     -0.195000
     16 O4         -2.1720    0.8850   -3.3610 os        1 CX6     -0.193000
     17 C12        -3.4050    0.4620   -3.5590 c3        1 CX6     -0.061000
     18 C13        -4.2970    0.4620   -2.3970 c3        1 CX6     -0.061000
     19 H1          1.9430   -1.6790    1.1960 h2        1 CX6      0.115000
     20 H21         2.0470   -1.7470    3.5690 hc        1 CX6      0.109500
     21 H22         1.6470   -0.2040    3.7020 hc        1 CX6      0.109500
     22 H31         3.9220   -1.3490    3.0100 hc        1 CX6      0.096000
     23 H32         3.5700    0.0610    3.9240 hc        1 CX6      0.096000
     24 H41         4.2820   -0.0320    1.3040 h1        1 CX6      0.103000
     25 H42         3.5830    1.3020    2.1270 h1        1 CX6      0.103000
     26 H8         -2.4240   -0.9040    0.8630 ha        1 CX6      0.171000
     27 H11         0.3910    1.1310   -2.5010 ha        1 CX6      0.177000
     28 H121       -3.3580   -0.4500   -3.9030 h1        1 CX6      0.112000
     29 H122       -3.8080    1.0250   -4.2480 h1        1 CX6      0.112000
     30 H131       -4.4830    1.3900   -2.1610 h1        1 CX6      0.113000
     31 H132       -5.1370    0.0420   -2.6630 h1        1 CX6      0.113000
@<TRIPOS>BOND
     1    1    4 1   
     2    1   10 1   
     3    2    8 1   
     4    3    4 1   
     5    3    7 1   
     6    3    8 1   
     7    4    5 1   
     8    4   19 1   
     9    5    6 1   
    10    5   20 1   
    11    5   21 1   
    12    6    7 1   
    13    6   22 1   
    14    6   23 1   
    15    7   24 1   
    16    7   25 1   
    17    8    9 1   
    18    9   10 1   
    19    9   14 1   
    20   10   11 1   
    21   11   12 1   
    22   11   26 1   
    23   12   15 1   
    24   13   14 1   
    25   13   16 1   
    26   14   27 1   
    27   15   18 1   
    28   16   17 1   
    29   17   18 1   
    30   17   28 1   
    31   17   29 1   
    32   18   30 1   
    33   18   31 1   
@<TRIPOS>SUBSTRUCTURE
     1 CX6         1 TEMP              0 ****  ****    0 ROOT
