@<TRIPOS>MOLECULE
CX6
   31    34     1     0     0
SMALL
bcc


@<TRIPOS>ATOM
      1 O1          0.2260   -0.2940   -0.1380 os        1 CX6     -0.336900
      2 O2          1.9810    2.6620   -2.2600 o         1 CX6     -0.610500
      3 N1          2.2700    0.9330   -0.7670 n         1 CX6     -0.467800
      4 C1          1.6710   -0.2130   -0.0860 c3        1 CX6      0.283500
      5 C2          2.0440   -0.1290    1.4130 c3        1 CX6     -0.091400
      6 C3          2.9410    1.0950    1.5570 c3        1 CX6     -0.097400
      7 C4          3.1240    1.6790    0.1460 c3        1 CX6      0.077000
      8 C5          1.5590    1.5960   -1.7770 c         1 CX6      0.716100
      9 C6          0.3150    0.9330   -2.2320 ca        1 CX6     -0.212600
     10 C7         -0.3120    0.0060   -1.3750 ca        1 CX6      0.152100
     11 C8         -1.5300   -0.5960   -1.7080 ca        1 CX6     -0.160000
     12 C9         -2.1090   -0.2570   -2.9360 ca        1 CX6      0.112100
     13 C10        -1.4740    0.6470   -3.8120 ca        1 CX6      0.011100
     14 C11        -0.2620    1.2500   -3.4620 ca        1 CX6     -0.029000
     15 O3         -3.2990   -0.8820   -3.2590 os        1 CX6     -0.311900
     16 O4         -2.0370    1.0090   -5.0290 os        1 CX6     -0.309900
     17 C12        -3.0280    0.0830   -5.4830 c3        1 CX6      0.089400
     18 C13        -3.9880   -0.2800   -4.3620 c3        1 CX6      0.089400
     19 H1          2.0620   -1.1540   -0.5730 h2        1 CX6      0.075700
     20 H21         1.1160   -0.0350    2.0300 hc        1 CX6      0.070200
     21 H22         2.5740   -1.0630    1.7150 hc        1 CX6      0.070200
     22 H31         2.4720    1.8530    2.2310 hc        1 CX6      0.056700
     23 H32         3.9320    0.8170    1.9900 hc        1 CX6      0.056700
     24 H41         4.1880    1.5580   -0.1980 h1        1 CX6      0.063700
     25 H42         2.8740    2.7750    0.1170 h1        1 CX6      0.063700
     26 H8         -2.0200   -1.3060   -1.0290 ha        1 CX6      0.171000
     27 H11         0.2220    1.9730   -4.1370 ha        1 CX6      0.177000
     28 H121       -2.5160   -0.8320   -5.8800 h1        1 CX6      0.072700
     29 H122       -3.5520    0.6320   -6.3090 h1        1 CX6      0.072700
     30 H131       -4.5270    0.6300   -3.9890 h1        1 CX6      0.073700
     31 H132       -4.7180   -1.0670   -4.6830 h1        1 CX6      0.073700
@<TRIPOS>BOND
     1    1    4 1   
     2    1   10 1   
     3    2    8 2   
     4    3    4 1   
     5    3    7 1   
     6    3    8 1   
     7    4    5 1   
     8    4   19 1   
     9    5    6 1   
    10    5   20 1   
    11    5   21 1   
    12    6    7 1   
    13    6   22 1   
    14    6   23 1   
    15    7   24 1   
    16    7   25 1   
    17    8    9 1   
    18    9   10 ar  
    19    9   14 ar  
    20   10   11 ar  
    21   11   12 ar  
    22   11   26 1   
    23   12   13 ar  
    24   12   15 1   
    25   13   14 ar  
    26   13   16 1   
    27   14   27 1   
    28   15   18 1   
    29   16   17 1   
    30   17   18 1   
    31   17   28 1   
    32   17   29 1   
    33   18   30 1   
    34   18   31 1   
@<TRIPOS>SUBSTRUCTURE
     1 CX6         1 TEMP              0 ****  ****    0 ROOT
