@<TRIPOS>MOLECULE
CX6
   31    34     1     0     0
SMALL
bcc


@<TRIPOS>ATOM
      1 O1          0.2200   -0.2860   -0.1330 os        1 CX6     -0.336900
      2 O2          1.9980    2.6430   -2.2720 o         1 CX6     -0.610500
      3 N1          2.2740    0.9210   -0.7690 n         1 CX6     -0.467800
      4 C1          1.6660   -0.2170   -0.0810 c3        1 CX6      0.283500
      5 C2          2.0390   -0.1270    1.4170 c3        1 CX6     -0.091400
      6 C3          2.9450    1.0910    1.5540 c3        1 CX6     -0.097400
      7 C4          3.1330    1.6660    0.1390 c3        1 CX6      0.077000
      8 C5          1.5690    1.5830   -1.7830 c         1 CX6      0.716100
      9 C6          0.3190    0.9280   -2.2340 ca        1 CX6     -0.212600
     10 C7         -0.3150    0.0110   -1.3720 ca        1 CX6      0.152100
     11 C8         -1.5380   -0.5830   -1.7020 ca        1 CX6     -0.160000
     12 C9         -2.1150   -0.2470   -2.9330 ca        1 CX6      0.112100
     13 C10        -1.4720    0.6470   -3.8130 ca        1 CX6      0.011100
     14 C11        -0.2560    1.2420   -3.4660 ca        1 CX6     -0.029000
     15 O3         -3.3090   -0.8640   -3.2520 os        1 CX6     -0.311900
     16 O4         -2.0320    1.0070   -5.0320 os        1 CX6     -0.309900
     17 C12        -3.0300    0.0860   -5.4810 c3        1 CX6      0.089400
     18 C13        -3.9930   -0.2630   -4.3590 c3        1 CX6      0.089400
     19 H1          2.0500   -1.1640   -0.5640 h2        1 CX6      0.075700
     20 H21         1.1110   -0.0220    2.0330 hc        1 CX6      0.070200
     21 H22         2.5620   -1.0640    1.7240 hc        1 CX6      0.070200
     22 H31         2.4820    1.8560    2.2240 hc        1 CX6      0.056700
     23 H32         3.9340    0.8070    1.9890 hc        1 CX6      0.056700
     24 H41         2.8920    2.7630    0.1040 h1        1 CX6      0.063700
     25 H42         4.1960    1.5340   -0.2030 h1        1 CX6      0.063700
     26 H8         -2.0340   -1.2860   -1.0190 ha        1 CX6      0.171000
     27 H11         0.2340    1.9580   -4.1450 ha        1 CX6      0.177000
     28 H121       -2.5260   -0.8360   -5.8730 h1        1 CX6      0.072700
     29 H122       -3.5490    0.6340   -6.3110 h1        1 CX6      0.072700
     30 H131       -4.7300   -1.0460   -4.6760 h1        1 CX6      0.073700
     31 H132       -4.5250    0.6540   -3.9910 h1        1 CX6      0.073700
@<TRIPOS>BOND
     1    1    4 1   
     2    1   10 1   
     3    2    8 2   
     4    3    4 1   
     5    3    7 1   
     6    3    8 1   
     7    4    5 1   
     8    4   19 1   
     9    5    6 1   
    10    5   20 1   
    11    5   21 1   
    12    6    7 1   
    13    6   22 1   
    14    6   23 1   
    15    7   24 1   
    16    7   25 1   
    17    8    9 1   
    18    9   10 ar  
    19    9   14 ar  
    20   10   11 ar  
    21   11   12 ar  
    22   11   26 1   
    23   12   13 ar  
    24   12   15 1   
    25   13   14 ar  
    26   13   16 1   
    27   14   27 1   
    28   15   18 1   
    29   16   17 1   
    30   17   18 1   
    31   17   28 1   
    32   17   29 1   
    33   18   30 1   
    34   18   31 1   
@<TRIPOS>SUBSTRUCTURE
     1 CX6         1 TEMP              0 ****  ****    0 ROOT
