@<TRIPOS>MOLECULE
CX6
   31    34     1     0     0
SMALL
bcc


@<TRIPOS>ATOM
      1 O1          1.3760    1.5200   -0.0010 os        1 CX6     -0.336900
      2 O2          1.6740   -2.5070   -0.0950 o         1 CX6     -0.610500
      3 N1          2.6240   -0.5240    0.5860 n         1 CX6     -0.467800
      4 C1          2.4730    0.9220    0.7330 c3        1 CX6      0.283500
      5 C2          3.7620    1.5950    0.2050 c3        1 CX6     -0.091400
      6 C3          4.6940    0.4610   -0.2020 c3        1 CX6     -0.097400
      7 C4          3.9690   -0.8530    0.1370 c3        1 CX6      0.077000
      8 C5          1.5310   -1.3040    0.1860 c         1 CX6      0.716100
      9 C6          0.2220   -0.6110    0.1510 ca        1 CX6     -0.212600
     10 C7          0.2010    0.7940    0.0500 ca        1 CX6      0.152100
     11 C8         -0.9970    1.5050   -0.0680 ca        1 CX6     -0.160000
     12 C9         -2.1910    0.7730   -0.0710 ca        1 CX6      0.112100
     13 C10        -2.1800   -0.6300    0.0580 ca        1 CX6      0.011100
     14 C11        -0.9740   -1.3290    0.1640 ca        1 CX6     -0.029000
     15 O3         -3.3650    1.4960   -0.1620 os        1 CX6     -0.311900
     16 O4         -3.3500   -1.3780    0.0430 os        1 CX6     -0.309900
     17 C12        -4.5150   -0.5990    0.3310 c3        1 CX6      0.089400
     18 C13        -4.5150    0.6950   -0.4660 c3        1 CX6      0.089400
     19 H1          2.2880    1.1460    1.8250 h2        1 CX6      0.075700
     20 H21         4.2080    2.2230    1.0120 hc        1 CX6      0.070200
     21 H22         3.5150    2.2580   -0.6620 hc        1 CX6      0.070200
     22 H31         5.6630    0.5200    0.3520 hc        1 CX6      0.056700
     23 H32         4.9200    0.5060   -1.2960 hc        1 CX6      0.056700
     24 H41         4.4930   -1.3900    0.9750 h1        1 CX6      0.063700
     25 H42         3.9330   -1.5460   -0.7490 h1        1 CX6      0.063700
     26 H8         -1.0050    2.5990   -0.1600 ha        1 CX6      0.171000
     27 H11        -0.9660   -2.4280    0.2420 ha        1 CX6      0.177000
     28 H121       -4.5480   -0.3880    1.4320 h1        1 CX6      0.072700
     29 H122       -5.3660   -1.2640    0.0320 h1        1 CX6      0.072700
     30 H131       -5.3800    1.3510   -0.1870 h1        1 CX6      0.073700
     31 H132       -4.5190    0.4840   -1.5670 h1        1 CX6      0.073700
@<TRIPOS>BOND
     1    1    4 1   
     2    1   10 1   
     3    2    8 2   
     4    3    4 1   
     5    3    7 1   
     6    3    8 1   
     7    4    5 1   
     8    4   19 1   
     9    5    6 1   
    10    5   20 1   
    11    5   21 1   
    12    6    7 1   
    13    6   22 1   
    14    6   23 1   
    15    7   24 1   
    16    7   25 1   
    17    8    9 1   
    18    9   10 ar  
    19    9   14 ar  
    20   10   11 ar  
    21   11   12 ar  
    22   11   26 1   
    23   12   13 ar  
    24   12   15 1   
    25   13   14 ar  
    26   13   16 1   
    27   14   27 1   
    28   15   18 1   
    29   16   17 1   
    30   17   18 1   
    31   17   28 1   
    32   17   29 1   
    33   18   30 1   
    34   18   31 1   
@<TRIPOS>SUBSTRUCTURE
     1 CX6         1 TEMP              0 ****  ****    0 ROOT
