@<TRIPOS>MOLECULE
CX6
   31    34     1     0     0
SMALL
bcc


@<TRIPOS>ATOM
      1 O1          0.2200   -0.2860   -0.1340 os        1 CX6     -0.336900
      2 O2          1.9920    2.6490   -2.2690 o         1 CX6     -0.610500
      3 N1          2.2710    0.9270   -0.7670 n         1 CX6     -0.467800
      4 C1          1.6660   -0.2130   -0.0800 c3        1 CX6      0.283500
      5 C2          2.0370   -0.1220    1.4190 c3        1 CX6     -0.091400
      6 C3          2.9400    1.0980    1.5570 c3        1 CX6     -0.097400
      7 C4          3.1280    1.6740    0.1430 c3        1 CX6      0.077000
      8 C5          1.5650    1.5880   -1.7810 c         1 CX6      0.716100
      9 C6          0.3180    0.9290   -2.2340 ca        1 CX6     -0.212600
     10 C7         -0.3150    0.0100   -1.3730 ca        1 CX6      0.152100
     11 C8         -1.5350   -0.5880   -1.7040 ca        1 CX6     -0.160000
     12 C9         -2.1110   -0.2520   -2.9350 ca        1 CX6      0.112100
     13 C10        -1.4710    0.6430   -3.8150 ca        1 CX6      0.011100
     14 C11        -0.2570    1.2420   -3.4660 ca        1 CX6     -0.029000
     15 O3         -3.3040   -0.8740   -3.2560 os        1 CX6     -0.311900
     16 O4         -2.0300    1.0020   -5.0340 os        1 CX6     -0.309900
     17 C12        -3.0260    0.0780   -5.4840 c3        1 CX6      0.089400
     18 C13        -3.9880   -0.2740   -4.3630 c3        1 CX6      0.089400
     19 H1          2.0530   -1.1580   -0.5620 h2        1 CX6      0.075700
     20 H21         2.5630   -1.0580    1.7260 hc        1 CX6      0.070200
     21 H22         1.1090   -0.0200    2.0340 hc        1 CX6      0.070200
     22 H31         3.9300    0.8170    1.9930 hc        1 CX6      0.056700
     23 H32         2.4740    1.8620    2.2270 hc        1 CX6      0.056700
     24 H41         4.1910    1.5460   -0.1990 h1        1 CX6      0.063700
     25 H42         2.8830    2.7710    0.1080 h1        1 CX6      0.063700
     26 H8         -2.0290   -1.2920   -1.0220 ha        1 CX6      0.171000
     27 H11         0.2320    1.9600   -4.1440 ha        1 CX6      0.177000
     28 H121       -2.5180   -0.8410   -5.8760 h1        1 CX6      0.072700
     29 H122       -3.5460    0.6250   -6.3140 h1        1 CX6      0.072700
     30 H131       -4.7220   -1.0590   -4.6810 h1        1 CX6      0.073700
     31 H132       -4.5230    0.6410   -3.9960 h1        1 CX6      0.073700
@<TRIPOS>BOND
     1    1    4 1   
     2    1   10 1   
     3    2    8 2   
     4    3    4 1   
     5    3    7 1   
     6    3    8 1   
     7    4    5 1   
     8    4   19 1   
     9    5    6 1   
    10    5   20 1   
    11    5   21 1   
    12    6    7 1   
    13    6   22 1   
    14    6   23 1   
    15    7   24 1   
    16    7   25 1   
    17    8    9 1   
    18    9   10 ar  
    19    9   14 ar  
    20   10   11 ar  
    21   11   12 ar  
    22   11   26 1   
    23   12   13 ar  
    24   12   15 1   
    25   13   14 ar  
    26   13   16 1   
    27   14   27 1   
    28   15   18 1   
    29   16   17 1   
    30   17   18 1   
    31   17   28 1   
    32   17   29 1   
    33   18   30 1   
    34   18   31 1   
@<TRIPOS>SUBSTRUCTURE
     1 CX6         1 TEMP              0 ****  ****    0 ROOT
