@<TRIPOS>MOLECULE
CX9
   46    42     1     0     0
SMALL
bcc


@<TRIPOS>ATOM
      1 O6         -1.3240   -2.7360    2.2370 o         1 CX9     -0.351000
      2 C6         -0.1820   -2.3120    2.2500 c1        1 CX9      0.402000
      3 C5          0.6250   -2.3510    3.5300 c1        1 CX9     -0.081000
      4 N1          0.3830   -1.8100    1.0920 n         1 CX9     -0.310000
      5 N7          0.3230   -2.7890    4.8030 n2        1 CX9     -0.131500
      6 C4          1.8900   -1.8960    3.5380 c1        1 CX9     -0.081000
      7 CAA        -0.7040   -3.1740    5.7370 c2        1 CX9     -0.089000
      8 C8          1.4370   -2.5920    5.5990 c1        1 CX9     -0.046000
      9 N9          2.3980   -2.0480    4.8370 n2        1 CX9     -0.131500
     10 N3          2.4850   -1.3630    2.3140 n2        1 CX9     -0.234000
     11 CAC         3.8010   -0.7630    2.3530 c3        1 CX9     -0.065000
     12 C2          1.7250   -1.3250    1.1070 c2        1 CX9      0.406000
     13 O2          2.2260   -0.8290    0.0640 o         1 CX9     -0.362000
     14 CAK        -0.3380   -1.9180   -0.1780 c3        1 CX9     -0.017000
     15 CAL        -0.9740   -0.5660   -0.5210 c3        1 CX9     -0.203000
     16 CA0        -1.4870   -0.5930   -1.9520 c3        1 CX9     -0.019000
     17 N10        -1.3970    0.7610   -2.5320 n         1 CX9     -0.321000
     18 CAP        -2.3810    1.6950   -2.2650 c2        1 CX9      0.403000
     19 CAR        -0.3380    1.0800   -3.4420 c2        1 CX9      0.417000
     20 OAF        -3.3470    1.3810   -1.6350 o         1 CX9     -0.301000
     21 CAV        -2.2890    3.1000   -2.8800 c2        1 CX9     -0.228000
     22 NAX        -3.0930    4.1850   -2.7930 n2        1 CX9     -0.043000
     23 CAT        -1.2330    3.4230   -3.6890 c1        1 CX9      0.090000
     24 CAJ        -2.5450    5.1780   -3.5410 c1        1 CX9     -0.102000
     25 NAN        -1.3940    4.7030   -4.0940 n2        1 CX9     -0.222000
     26 NAZ        -0.2030    2.4380   -3.9590 n2        1 CX9     -0.256000
     27 CAD         0.9000    2.7780   -4.7590 c3        1 CX9     -0.077000
     28 OAH         0.4400    0.2150   -3.7950 o         1 CX9     -0.358000
     29 HAA        -0.9310   -2.4020    6.3140 ha        1 CX9      0.111000
     30 HAAA       -1.5060   -3.4620    5.2420 ha        1 CX9      0.111000
     31 HAAB       -0.3760   -3.9220    6.3000 ha        1 CX9      0.111000
     32 H8          1.5310   -2.8640    6.5620 DU        1 CX9      0.226333
     33 HAC         4.4100   -1.2740    1.7790 h1        1 CX9      0.102333
     34 HACA        4.1430   -0.7710    3.2910 h1        1 CX9      0.102333
     35 HACB        3.7500    0.1570    2.0330 h1        1 CX9      0.102333
     36 HAK        -1.0440   -2.6040   -0.0990 h1        1 CX9      0.118500
     37 HAKA        0.2850   -2.1710   -0.8850 h1        1 CX9      0.118500
     38 HAL        -1.7090   -0.3940    0.0810 hc        1 CX9      0.111000
     39 HALA       -0.2980    0.1500   -0.4270 hc        1 CX9      0.111000
     40 HA0        -2.4350   -0.8960   -1.9590 h1        1 CX9      0.118500
     41 HA0A       -0.9390   -1.2170   -2.4860 h1        1 CX9      0.118500
     42 HAJ        -2.9300    6.0640   -3.6910 DU        1 CX9      0.226333
     43 HNAN       -0.8300    5.1670   -4.6450 DU        1 CX9      0.226333
     44 HAD         1.4300    3.4680   -4.3060 h1        1 CX9      0.100000
     45 HADA        0.5840    3.1210   -5.6230 h1        1 CX9      0.100000
     46 HADB        1.4560    1.9810   -4.9060 h1        1 CX9      0.100000
@<TRIPOS>BOND
     1    1    2 1   
     2    2    4 1   
     3    3    5 1   
     4    3    6 1   
     5    4   12 1   
     6    4   14 1   
     7    5    8 1   
     8    6    9 1   
     9    7   29 1   
    10    7   30 1   
    11    7   31 1   
    12    8    9 1   
    13   10   11 1   
    14   10   12 1   
    15   11   33 1   
    16   11   34 1   
    17   11   35 1   
    18   12   13 1   
    19   14   15 1   
    20   14   36 1   
    21   14   37 1   
    22   15   16 1   
    23   15   38 1   
    24   15   39 1   
    25   16   17 1   
    26   16   40 1   
    27   16   41 1   
    28   17   18 1   
    29   17   19 1   
    30   18   20 1   
    31   18   21 1   
    32   19   26 1   
    33   19   28 1   
    34   21   22 1   
    35   21   23 1   
    36   22   24 1   
    37   23   25 1   
    38   24   25 1   
    39   26   27 1   
    40   27   44 1   
    41   27   45 1   
    42   27   46 1   
@<TRIPOS>SUBSTRUCTURE
     1 CX9         1 TEMP              0 ****  ****    0 ROOT
