@<TRIPOS>MOLECULE
CX9
   46    49     1     0     0
SMALL
bcc


@<TRIPOS>ATOM
      1 O6         -0.1060   -0.4920    0.0580 o         1 CX9     -0.628500
      2 C6          1.1120   -0.2420    0.1170 c         1 CX9      0.765100
      3 C5          1.9000   -0.2630    1.3370 cc        1 CX9     -0.350200
      4 N1          1.8530    0.0760   -1.0420 n         1 CX9     -0.481400
      5 N7          1.5390   -0.5300    2.6620 na        1 CX9     -0.148900
      6 C4          3.3040    0.0200    1.3530 cd        1 CX9      0.485200
      7 CAA         0.2380   -0.8650    3.1420 c3        1 CX9      0.009600
      8 C8          2.7070   -0.4010    3.4110 cc        1 CX9      0.442400
      9 N9          3.7960   -0.0710    2.6650 nd        1 CX9     -0.685000
     10 N3          3.9780    0.3270    0.1810 n         1 CX9     -0.418300
     11 CAC         5.3880    0.6140    0.2000 c3        1 CX9      0.090300
     12 C2          3.2430    0.3680   -1.0300 c         1 CX9      0.814500
     13 O2          3.8330    0.6520   -2.0950 o         1 CX9     -0.633500
     14 CAK         1.1700    0.1670   -2.3230 c3        1 CX9      0.099000
     15 CAL         0.9100    1.5980   -2.7940 c3        1 CX9     -0.124400
     16 CA0         0.0360    1.5390   -4.0470 c3        1 CX9      0.097000
     17 N10        -0.1830    2.8290   -4.6830 n         1 CX9     -0.492400
     18 CAP         0.5250    3.1470   -5.8780 c         1 CX9      0.658000
     19 CAR        -1.0680    3.7140   -4.0320 c         1 CX9      0.824500
     20 OAF         1.2810    2.3110   -6.3890 o         1 CX9     -0.574500
     21 CAV         0.2590    4.4790   -6.4040 cc        1 CX9      0.190800
     22 NAX         0.7720    5.1080   -7.5400 nc        1 CX9     -0.568000
     23 CAT        -0.6490    5.3580   -5.7290 cd        1 CX9     -0.008000
     24 CAJ         0.2010    6.3260   -7.5600 cd        1 CX9      0.386400
     25 NAN        -0.6820    6.5380   -6.4730 na        1 CX9     -0.335900
     26 NAZ        -1.3170    5.0110   -4.5680 n         1 CX9     -0.354000
     27 CAD        -2.2210    5.9210   -3.9240 c3        1 CX9      0.078300
     28 OAH        -1.6640    3.3850   -2.9830 o         1 CX9     -0.635500
     29 HAA         0.2610   -1.8800    3.6240 h1        1 CX9      0.071033
     30 HAAA       -0.4890   -0.8770    2.2830 h1        1 CX9      0.071033
     31 HAAB       -0.0940   -0.1060    3.9010 h1        1 CX9      0.071033
     32 H8          2.7300   -0.5550    4.4970 h5        1 CX9      0.070100
     33 HAC         5.9420   -0.2640    0.6270 h1        1 CX9      0.063367
     34 HACA        5.7480    0.8160   -0.8440 h1        1 CX9      0.063367
     35 HACB        5.5790    1.5140    0.8440 h1        1 CX9      0.063367
     36 HAK         0.1890   -0.3820   -2.2270 h1        1 CX9      0.078700
     37 HAKA        1.8090   -0.3570   -3.0920 h1        1 CX9      0.078700
     38 HAL         0.3830    2.1880   -2.0000 hc        1 CX9      0.071200
     39 HALA        1.8890    2.0990   -3.0150 hc        1 CX9      0.071200
     40 HA0        -0.9720    1.1170   -3.7660 h1        1 CX9      0.078700
     41 HA0A        0.5170    0.8600   -4.8090 h1        1 CX9      0.078700
     42 HAJ         0.3710    7.1010   -8.3150 h5        1 CX9      0.072100
     43 HNAN       -1.2100    7.3460   -6.2780 hn        1 CX9      0.311700
     44 HAD        -2.6530    5.4380   -3.0060 h1        1 CX9      0.060033
     45 HADA       -1.6750    6.8560   -3.6260 h1        1 CX9      0.060033
     46 HADB       -3.0560    6.1890   -4.6260 h1        1 CX9      0.060033
@<TRIPOS>BOND
     1    1    2 2   
     2    2    3 1   
     3    2    4 1   
     4    3    5 1   
     5    3    6 2   
     6    4   12 1   
     7    4   14 1   
     8    5    7 1   
     9    5    8 1   
    10    6    9 1   
    11    6   10 1   
    12    7   29 1   
    13    7   30 1   
    14    7   31 1   
    15    8    9 2   
    16    8   32 1   
    17   10   11 1   
    18   10   12 1   
    19   11   33 1   
    20   11   34 1   
    21   11   35 1   
    22   12   13 2   
    23   14   15 1   
    24   14   36 1   
    25   14   37 1   
    26   15   16 1   
    27   15   38 1   
    28   15   39 1   
    29   16   17 1   
    30   16   40 1   
    31   16   41 1   
    32   17   18 1   
    33   17   19 1   
    34   18   20 2   
    35   18   21 1   
    36   19   26 1   
    37   19   28 2   
    38   21   22 1   
    39   21   23 2   
    40   22   24 2   
    41   23   25 1   
    42   23   26 1   
    43   24   25 1   
    44   24   42 1   
    45   25   43 1   
    46   26   27 1   
    47   27   44 1   
    48   27   45 1   
    49   27   46 1   
@<TRIPOS>SUBSTRUCTURE
     1 CX9         1 TEMP              0 ****  ****    0 ROOT
