@<TRIPOS>MOLECULE
CX9
   46    49     1     0     0
SMALL
bcc


@<TRIPOS>ATOM
      1 O6          2.7590   -1.8690   -1.4600 o         1 CX9     -0.628500
      2 C6          3.0770   -0.8570   -0.8090 c         1 CX9      0.765100
      3 C5          4.2810   -0.7390   -0.0060 cc        1 CX9     -0.350200
      4 N1          2.2720    0.3020   -0.8140 n         1 CX9     -0.481400
      5 N7          5.3130   -1.6500    0.2470 na        1 CX9     -0.148900
      6 C4          4.6120    0.4520    0.7190 cd        1 CX9      0.485200
      7 CAA         5.4230   -2.9790   -0.2600 c3        1 CX9      0.009600
      8 C8          6.2060   -0.9940    1.0930 cc        1 CX9      0.442400
      9 N9          5.8240    0.2750    1.4040 nd        1 CX9     -0.685000
     10 N3          3.7800    1.5600    0.6760 n         1 CX9     -0.418300
     11 CAC         4.1130    2.7550    1.4070 c3        1 CX9      0.090300
     12 C2          2.5900    1.4820   -0.0890 c         1 CX9      0.814500
     13 O2          1.8230    2.4690   -0.1310 o         1 CX9     -0.633500
     14 CAK         1.0180    0.2980   -1.5500 c3        1 CX9      0.099000
     15 CAL        -0.2240    0.1370   -0.6720 c3        1 CX9     -0.124400
     16 CA0        -1.4380   -0.0330   -1.5860 c3        1 CX9      0.097000
     17 N10        -2.7120   -0.0650   -0.8850 n         1 CX9     -0.492400
     18 CAP        -3.5550    1.0830   -0.9180 c         1 CX9      0.658000
     19 CAR        -3.0100   -1.2430   -0.1680 c         1 CX9      0.824500
     20 OAF        -3.2220    2.0760   -1.5770 o         1 CX9     -0.574500
     21 CAV        -4.7860    0.9520   -0.1490 cc        1 CX9      0.190800
     22 NAX        -5.8240    1.8680    0.0350 nc        1 CX9     -0.568000
     23 CAT        -5.0700   -0.2560    0.5670 cd        1 CX9     -0.008000
     24 CAJ        -6.7100    1.2460    0.8320 cd        1 CX9      0.386400
     25 NAN        -6.3020   -0.0620    1.1930 na        1 CX9     -0.335900
     26 NAZ        -4.2230   -1.3490    0.5740 n         1 CX9     -0.354000
     27 CAD        -4.5470   -2.5430    1.3020 c3        1 CX9      0.078300
     28 OAH        -2.2330   -2.2230   -0.1720 o         1 CX9     -0.635500
     29 HAA         6.3610   -3.0760   -0.8710 h1        1 CX9      0.071033
     30 HAAA        5.4630   -3.7090    0.5930 h1        1 CX9      0.071033
     31 HAAB        4.5310   -3.2090   -0.9070 h1        1 CX9      0.071033
     32 H8          7.1230   -1.4680    1.4630 h5        1 CX9      0.070100
     33 HAC         5.1130    3.1340    1.0650 h1        1 CX9      0.063367
     34 HACA        3.3310    3.5400    1.2260 h1        1 CX9      0.063367
     35 HACB        4.1650    2.5210    2.5040 h1        1 CX9      0.063367
     36 HAK         0.9430    1.2760   -2.1080 h1        1 CX9      0.078700
     37 HAKA        1.0630   -0.5470   -2.2970 h1        1 CX9      0.078700
     38 HAL        -0.1280   -0.7630   -0.0100 hc        1 CX9      0.071200
     39 HALA       -0.3380    1.0430   -0.0220 hc        1 CX9      0.071200
     40 HA0        -1.4750    0.8210   -2.3230 h1        1 CX9      0.078700
     41 HA0A       -1.3320   -1.0020   -2.1550 h1        1 CX9      0.078700
     42 HAJ        -7.6570    1.6650    1.1900 h5        1 CX9      0.072100
     43 HNAN       -6.7830   -0.7040    1.7640 hn        1 CX9      0.311700
     44 HAD        -3.7280   -3.3010    1.1690 h1        1 CX9      0.060033
     45 HADA       -4.6560   -2.3060    2.3950 h1        1 CX9      0.060033
     46 HADB       -5.5120   -2.9730    0.9200 h1        1 CX9      0.060033
@<TRIPOS>BOND
     1    1    2 2   
     2    2    3 1   
     3    2    4 1   
     4    3    5 1   
     5    3    6 2   
     6    4   12 1   
     7    4   14 1   
     8    5    7 1   
     9    5    8 1   
    10    6    9 1   
    11    6   10 1   
    12    7   29 1   
    13    7   30 1   
    14    7   31 1   
    15    8    9 2   
    16    8   32 1   
    17   10   11 1   
    18   10   12 1   
    19   11   33 1   
    20   11   34 1   
    21   11   35 1   
    22   12   13 2   
    23   14   15 1   
    24   14   36 1   
    25   14   37 1   
    26   15   16 1   
    27   15   38 1   
    28   15   39 1   
    29   16   17 1   
    30   16   40 1   
    31   16   41 1   
    32   17   18 1   
    33   17   19 1   
    34   18   20 2   
    35   18   21 1   
    36   19   26 1   
    37   19   28 2   
    38   21   22 1   
    39   21   23 2   
    40   22   24 2   
    41   23   25 1   
    42   23   26 1   
    43   24   25 1   
    44   24   42 1   
    45   25   43 1   
    46   26   27 1   
    47   27   44 1   
    48   27   45 1   
    49   27   46 1   
@<TRIPOS>SUBSTRUCTURE
     1 CX9         1 TEMP              0 ****  ****    0 ROOT
