@<TRIPOS>MOLECULE
CX9
   46    49     1     0     0
SMALL
bcc


@<TRIPOS>ATOM
      1 O6         -0.1160   -0.4970    0.0460 o         1 CX9     -0.628500
      2 C6          1.1010   -0.2450    0.1150 c         1 CX9      0.765100
      3 C5          1.8800   -0.2660    1.3400 cc        1 CX9     -0.350200
      4 N1          1.8490    0.0760   -1.0390 n         1 CX9     -0.481400
      5 N7          1.5100   -0.5350    2.6620 na        1 CX9     -0.148900
      6 C4          3.2830    0.0200    1.3660 cd        1 CX9      0.485200
      7 CAA         0.2060   -0.8730    3.1330 c3        1 CX9      0.009600
      8 C8          2.6720   -0.4050    3.4200 cc        1 CX9      0.442400
      9 N9          3.7650   -0.0710    2.6820 nd        1 CX9     -0.685000
     10 N3          3.9650    0.3300    0.2000 n         1 CX9     -0.418300
     11 CAC         5.3750    0.6190    0.2300 c3        1 CX9      0.090300
     12 C2          3.2390    0.3700   -1.0160 c         1 CX9      0.814500
     13 O2          3.8360    0.6560   -2.0760 o         1 CX9     -0.633500
     14 CAK         1.1760    0.1670   -2.3250 c3        1 CX9      0.099000
     15 CAL         0.9170    1.5990   -2.7960 c3        1 CX9     -0.124400
     16 CA0         0.0520    1.5400   -4.0550 c3        1 CX9      0.097000
     17 N10        -0.1650    2.8300   -4.6900 n         1 CX9     -0.492400
     18 CAP         0.5510    3.1520   -5.8790 c         1 CX9      0.658000
     19 CAR        -1.0580    3.7120   -4.0440 c         1 CX9      0.824500
     20 OAF         1.3130    2.3180   -6.3860 o         1 CX9     -0.574500
     21 CAV         0.2860    4.4840   -6.4050 cc        1 CX9      0.190800
     22 NAX         0.8070    5.1170   -7.5360 nc        1 CX9     -0.568000
     23 CAT        -0.6290    5.3600   -5.7360 cd        1 CX9     -0.008000
     24 CAJ         0.2330    6.3330   -7.5590 cd        1 CX9      0.386400
     25 NAN        -0.6590    6.5410   -6.4780 na        1 CX9     -0.335900
     26 NAZ        -1.3050    5.0100   -4.5810 n         1 CX9     -0.354000
     27 CAD        -2.2170    5.9160   -3.9420 c3        1 CX9      0.078300
     28 OAH        -1.6610    3.3790   -3.0010 o         1 CX9     -0.635500
     29 HAA         0.2270   -1.8880    3.6140 h1        1 CX9      0.071033
     30 HAAA       -0.5150   -0.8840    2.2680 h1        1 CX9      0.071033
     31 HAAB       -0.1320   -0.1150    3.8900 h1        1 CX9      0.071033
     32 H8          2.6880   -0.5600    4.5060 h5        1 CX9      0.070100
     33 HAC         5.9270   -0.2590    0.6590 h1        1 CX9      0.063367
     34 HACA        5.7420    0.8220   -0.8120 h1        1 CX9      0.063367
     35 HACB        5.5590    1.5190    0.8760 h1        1 CX9      0.063367
     36 HAK         0.1950   -0.3830   -2.2360 h1        1 CX9      0.078700
     37 HAKA        1.8220   -0.3550   -3.0900 h1        1 CX9      0.078700
     38 HAL         0.3820    2.1870   -2.0040 hc        1 CX9      0.071200
     39 HALA        1.8970    2.1020   -3.0080 hc        1 CX9      0.071200
     40 HA0        -0.9570    1.1150   -3.7830 h1        1 CX9      0.078700
     41 HA0A        0.5410    0.8630   -4.8140 h1        1 CX9      0.078700
     42 HAJ         0.4070    7.1100   -8.3100 h5        1 CX9      0.072100
     43 HNAN       -1.1900    7.3470   -6.2850 hn        1 CX9      0.311700
     44 HAD        -2.6550    5.4300   -3.0280 h1        1 CX9      0.060033
     45 HADA       -1.6750    6.8520   -3.6380 h1        1 CX9      0.060033
     46 HADB       -3.0470    6.1840   -4.6500 h1        1 CX9      0.060033
@<TRIPOS>BOND
     1    1    2 2   
     2    2    3 1   
     3    2    4 1   
     4    3    5 1   
     5    3    6 2   
     6    4   12 1   
     7    4   14 1   
     8    5    7 1   
     9    5    8 1   
    10    6    9 1   
    11    6   10 1   
    12    7   29 1   
    13    7   30 1   
    14    7   31 1   
    15    8    9 2   
    16    8   32 1   
    17   10   11 1   
    18   10   12 1   
    19   11   33 1   
    20   11   34 1   
    21   11   35 1   
    22   12   13 2   
    23   14   15 1   
    24   14   36 1   
    25   14   37 1   
    26   15   16 1   
    27   15   38 1   
    28   15   39 1   
    29   16   17 1   
    30   16   40 1   
    31   16   41 1   
    32   17   18 1   
    33   17   19 1   
    34   18   20 2   
    35   18   21 1   
    36   19   26 1   
    37   19   28 2   
    38   21   22 1   
    39   21   23 2   
    40   22   24 2   
    41   23   25 1   
    42   23   26 1   
    43   24   25 1   
    44   24   42 1   
    45   25   43 1   
    46   26   27 1   
    47   27   44 1   
    48   27   45 1   
    49   27   46 1   
@<TRIPOS>SUBSTRUCTURE
     1 CX9         1 TEMP              0 ****  ****    0 ROOT
