@<TRIPOS>MOLECULE
CX9
   46    49     1     0     0
SMALL
bcc


@<TRIPOS>ATOM
      1 O6         -0.1270   -0.4890    0.0490 o         1 CX9     -0.628500
      2 C6          1.0920   -0.2430    0.1170 c         1 CX9      0.765100
      3 C5          1.8710   -0.2660    1.3420 cc        1 CX9     -0.350200
      4 N1          1.8410    0.0730   -1.0380 n         1 CX9     -0.481400
      5 N7          1.5000   -0.5320    2.6640 na        1 CX9     -0.148900
      6 C4          3.2760    0.0130    1.3680 cd        1 CX9      0.485200
      7 CAA         0.1940   -0.8630    3.1360 c3        1 CX9      0.009600
      8 C8          2.6630   -0.4070    3.4220 cc        1 CX9      0.442400
      9 N9          3.7580   -0.0800    2.6830 nd        1 CX9     -0.685000
     10 N3          3.9580    0.3180    0.2010 n         1 CX9     -0.418300
     11 CAC         5.3700    0.6000    0.2300 c3        1 CX9      0.090300
     12 C2          3.2320    0.3610   -1.0150 c         1 CX9      0.814500
     13 O2          3.8300    0.6430   -2.0760 o         1 CX9     -0.633500
     14 CAK         1.1680    0.1660   -2.3230 c3        1 CX9      0.099000
     15 CAL         0.9150    1.5990   -2.7950 c3        1 CX9     -0.124400
     16 CA0         0.0510    1.5430   -4.0550 c3        1 CX9      0.097000
     17 N10        -0.1610    2.8340   -4.6910 n         1 CX9     -0.492400
     18 CAP         0.5580    3.1520   -5.8790 c         1 CX9      0.658000
     19 CAR        -1.0520    3.7180   -4.0460 c         1 CX9      0.824500
     20 OAF         1.3170    2.3160   -6.3850 o         1 CX9     -0.574500
     21 CAV         0.2970    4.4850   -6.4060 cc        1 CX9      0.190800
     22 NAX         0.8210    5.1160   -7.5360 nc        1 CX9     -0.568000
     23 CAT        -0.6160    5.3640   -5.7380 cd        1 CX9     -0.008000
     24 CAJ         0.2520    6.3330   -7.5600 cd        1 CX9      0.386400
     25 NAN        -0.6410    6.5450   -6.4800 na        1 CX9     -0.335900
     26 NAZ        -1.2940    5.0170   -4.5830 n         1 CX9     -0.354000
     27 CAD        -2.2040    5.9260   -3.9460 c3        1 CX9      0.078300
     28 OAH        -1.6570    3.3880   -3.0030 o         1 CX9     -0.635500
     29 HAA        -0.5260   -0.8730    2.2710 h1        1 CX9      0.071033
     30 HAAA       -0.1410   -0.1020    3.8910 h1        1 CX9      0.071033
     31 HAAB        0.2100   -1.8770    3.6180 h1        1 CX9      0.071033
     32 H8          2.6780   -0.5610    4.5080 h5        1 CX9      0.070100
     33 HAC         5.9180   -0.2810    0.6590 h1        1 CX9      0.063367
     34 HACA        5.7380    0.8010   -0.8120 h1        1 CX9      0.063367
     35 HACB        5.5590    1.4980    0.8760 h1        1 CX9      0.063367
     36 HAK         0.1850   -0.3800   -2.2340 h1        1 CX9      0.078700
     37 HAKA        1.8110   -0.3590   -3.0880 h1        1 CX9      0.078700
     38 HAL         1.8970    2.0980   -3.0080 hc        1 CX9      0.071200
     39 HALA        0.3820    2.1890   -2.0050 hc        1 CX9      0.071200
     40 HA0         0.5370    0.8640   -4.8140 h1        1 CX9      0.078700
     41 HA0A       -0.9600    1.1210   -3.7830 h1        1 CX9      0.078700
     42 HAJ         0.4280    7.1090   -8.3120 h5        1 CX9      0.072100
     43 HNAN       -1.1700    7.3530   -6.2890 hn        1 CX9      0.311700
     44 HAD        -3.0330    6.1950   -4.6550 h1        1 CX9      0.060033
     45 HADA       -1.6600    6.8600   -3.6430 h1        1 CX9      0.060033
     46 HADB       -2.6440    5.4420   -3.0320 h1        1 CX9      0.060033
@<TRIPOS>BOND
     1    1    2 2   
     2    2    3 1   
     3    2    4 1   
     4    3    5 1   
     5    3    6 2   
     6    4   12 1   
     7    4   14 1   
     8    5    7 1   
     9    5    8 1   
    10    6    9 1   
    11    6   10 1   
    12    7   29 1   
    13    7   30 1   
    14    7   31 1   
    15    8    9 2   
    16    8   32 1   
    17   10   11 1   
    18   10   12 1   
    19   11   33 1   
    20   11   34 1   
    21   11   35 1   
    22   12   13 2   
    23   14   15 1   
    24   14   36 1   
    25   14   37 1   
    26   15   16 1   
    27   15   38 1   
    28   15   39 1   
    29   16   17 1   
    30   16   40 1   
    31   16   41 1   
    32   17   18 1   
    33   17   19 1   
    34   18   20 2   
    35   18   21 1   
    36   19   26 1   
    37   19   28 2   
    38   21   22 1   
    39   21   23 2   
    40   22   24 2   
    41   23   25 1   
    42   23   26 1   
    43   24   25 1   
    44   24   42 1   
    45   25   43 1   
    46   26   27 1   
    47   27   44 1   
    48   27   45 1   
    49   27   46 1   
@<TRIPOS>SUBSTRUCTURE
     1 CX9         1 TEMP              0 ****  ****    0 ROOT
