@<TRIPOS>MOLECULE
CXA
   29    29     1     0     0
SMALL
bcc


@<TRIPOS>ATOM
      1 C1          0.1980    0.1530    0.1390 ca        1 CXA     -0.138300
      2 C2          1.5880    0.3130    0.1950 ca        1 CXA     -0.128500
      3 C3          2.2260    0.4700    1.4250 ca        1 CXA     -0.117500
      4 C4          1.4810    0.4680    2.6050 ca        1 CXA     -0.104000
      5 C5          0.0950    0.3130    2.5530 ca        1 CXA     -0.117500
      6 C6         -0.5460    0.1580    1.3250 ca        1 CXA     -0.128500
      7 C12        -0.4860    0.0180   -1.1720 c3        1 CXA     -0.035100
      8 C13        -0.8810   -1.4480   -1.4510 c3        1 CXA      0.182500
      9 C14        -1.6450   -1.4900   -2.7690 c         1 CXA      0.609100
     10 O15        -1.7840   -2.7390   -3.3180 oh        1 CXA     -0.683100
     11 O16        -2.1840   -0.5620   -3.3590 o         1 CXA     -0.454000
     12 N17         0.2610   -2.3460   -1.4210 n3        1 CXA     -0.917100
     13 S18         0.2810   -3.7570   -0.7500 s6        1 CXA      1.528800
     14 N19        -0.2180   -4.8880   -2.2200 n4        1 CXA     -0.797500
     15 O20        -0.7800   -4.0210    0.1000 o         1 CXA     -0.552300
     16 O21         1.5590   -4.2430   -0.5290 o         1 CXA     -0.552300
     17 HC2         2.1780    0.3450   -0.7340 ha        1 CXA      0.134000
     18 HC3         3.3170    0.6090    1.4630 ha        1 CXA      0.152000
     19 HC4         1.9850    0.6000    3.5750 ha        1 CXA      0.154000
     20 HC5        -0.4960    0.3250    3.4820 ha        1 CXA      0.152000
     21 HC6        -1.6420    0.0580    1.2870 ha        1 CXA      0.134000
     22 H121        0.1620    0.4010   -2.0050 hc        1 CXA      0.094200
     23 H122       -1.4360    0.6230   -1.1860 hc        1 CXA      0.094200
     24 HC13       -1.6180   -1.7730   -0.6460 h1        1 CXA      0.119700
     25 HN17       -2.3410   -2.6860   -4.1170 ho        1 CXA      0.482000
     26 H191        0.5310   -5.5440   -2.4350 hn        1 CXA      0.463467
     27 H192       -1.0440   -5.4290   -1.9660 hn        1 CXA      0.463467
     28 H172        1.0880   -1.9050   -1.7820 hn        1 CXA      0.501800
     29 H193       -0.4460   -4.3800   -3.0750 hn        1 CXA      0.463467
@<TRIPOS>BOND
     1    1    2 ar  
     2    1    6 ar  
     3    1    7 1   
     4    2    3 ar  
     5    2   17 1   
     6    3    4 ar  
     7    3   18 1   
     8    4    5 ar  
     9    4   19 1   
    10    5    6 ar  
    11    5   20 1   
    12    6   21 1   
    13    7    8 1   
    14    7   22 1   
    15    7   23 1   
    16    8    9 1   
    17    8   12 1   
    18    8   24 1   
    19    9   10 1   
    20    9   11 2   
    21   10   25 1   
    22   12   13 1   
    23   12   28 1   
    24   13   14 1   
    25   13   15 2   
    26   13   16 2   
    27   14   26 1   
    28   14   27 1   
    29   14   29 1   
@<TRIPOS>SUBSTRUCTURE
     1 CXA         1 TEMP              0 ****  ****    0 ROOT
