@<TRIPOS>MOLECULE
CXA
   29    29     1     0     0
SMALL
bcc


@<TRIPOS>ATOM
      1 C1          0.2210    0.1490    0.1410 ca        1 CXA     -0.138300
      2 C2          1.6130    0.2690    0.2370 ca        1 CXA     -0.128500
      3 C3          2.2180    0.4130    1.4850 ca        1 CXA     -0.117500
      4 C4          1.4390    0.4370    2.6420 ca        1 CXA     -0.104000
      5 C5          0.0510    0.3220    2.5500 ca        1 CXA     -0.117500
      6 C6         -0.5570    0.1800    1.3040 ca        1 CXA     -0.128500
      7 C12        -0.4280    0.0290   -1.1900 c3        1 CXA     -0.035100
      8 C13        -0.8550   -1.4280   -1.4760 c3        1 CXA      0.182500
      9 C14        -1.5800   -1.4530   -2.8160 c         1 CXA      0.609100
     10 O15        -1.7360   -2.6990   -3.3660 oh        1 CXA     -0.683100
     11 O16        -2.0750   -0.5120   -3.4250 o         1 CXA     -0.454000
     12 N17         0.2610   -2.3560   -1.4100 n3        1 CXA     -0.917100
     13 S18         0.2220   -3.7650   -0.7350 s6        1 CXA      1.528800
     14 N19        -0.2640   -4.8870   -2.2160 n4        1 CXA     -0.797500
     15 O20        -0.8710   -3.9970    0.0840 o         1 CXA     -0.552300
     16 O21         1.4790   -4.2850   -0.4740 o         1 CXA     -0.552300
     17 HC2         2.2300    0.2800   -0.6730 ha        1 CXA      0.133500
     18 HC3         3.3120    0.5190    1.5550 ha        1 CXA      0.152000
     19 HC4         1.9180    0.5580    3.6270 ha        1 CXA      0.154000
     20 HC5        -0.5670    0.3560    3.4610 ha        1 CXA      0.152000
     21 HC6        -1.6540    0.1130    1.2340 ha        1 CXA      0.133500
     22 H121       -1.3590    0.6590   -1.2340 hc        1 CXA      0.094200
     23 H122        0.2550    0.3910   -2.0040 hc        1 CXA      0.094200
     24 HC13       -1.6240   -1.7290   -0.6930 h1        1 CXA      0.119700
     25 HN17       -2.2670   -2.6340   -4.1810 ho        1 CXA      0.482000
     26 H191        0.4730   -5.5640   -2.4070 hn        1 CXA      0.463467
     27 H192       -0.4520   -4.3750   -3.0780 hn        1 CXA      0.463467
     28 H172        1.1100   -1.9400   -1.7470 hn        1 CXA      0.501800
     29 H193       -1.1120   -5.4040   -1.9850 hn        1 CXA      0.463467
@<TRIPOS>BOND
     1    1    2 ar  
     2    1    6 ar  
     3    1    7 1   
     4    2    3 ar  
     5    2   17 1   
     6    3    4 ar  
     7    3   18 1   
     8    4    5 ar  
     9    4   19 1   
    10    5    6 ar  
    11    5   20 1   
    12    6   21 1   
    13    7    8 1   
    14    7   22 1   
    15    7   23 1   
    16    8    9 1   
    17    8   12 1   
    18    8   24 1   
    19    9   10 1   
    20    9   11 2   
    21   10   25 1   
    22   12   13 1   
    23   12   28 1   
    24   13   14 1   
    25   13   15 2   
    26   13   16 2   
    27   14   26 1   
    28   14   27 1   
    29   14   29 1   
@<TRIPOS>SUBSTRUCTURE
     1 CXA         1 TEMP              0 ****  ****    0 ROOT
