@<TRIPOS>MOLECULE
CXA
   29    27     1     0     0
SMALL
bcc


@<TRIPOS>ATOM
      1 C1          0.1950    0.6380    0.5580 ca        1 CXA     -0.153300
      2 C2          1.5490    0.3300    0.3760 ca        1 CXA     -0.119000
      3 C3          2.3430   -0.0030    1.4710 ca        1 CXA     -0.115500
      4 C4          1.7930   -0.0250    2.7540 ca        1 CXA     -0.099000
      5 C5          0.4460    0.2860    2.9390 ca        1 CXA     -0.115500
      6 C6         -0.3530    0.6180    1.8450 ca        1 CXA     -0.119000
      7 C12        -0.6470    1.0270   -0.6040 c3        1 CXA     -0.137400
      8 C13        -1.0060   -0.0990   -1.5140 c2        1 CXA      0.378200
      9 C14        -2.2500   -2.7530   -4.4710 c1        1 CXA      0.944000
     10 O15        -2.1600   -1.7550   -3.8160 o         1 CXA     -0.472000
     11 O16        -2.3700   -3.7270   -5.1340 o         1 CXA     -0.472000
     12 N17        -0.5140   -1.2970   -1.4660 nv        1 CXA     -0.299100
     13 S18         0.6790   -4.4580   -2.5030 s4        1 CXA      0.395700
     14 N19        -0.1630   -5.9390   -1.7070 nz        1 CXA     -0.666300
     15 O20        -0.4930   -3.7390   -3.0710 o         1 CXA     -0.494900
     16 O21         0.9680   -3.6230   -1.3210 o         1 CXA     -0.494900
     17 HC2         1.9950    0.3690   -0.6290 ha        1 CXA      0.136500
     18 HC3         3.4090   -0.2410    1.3240 ha        1 CXA      0.152000
     19 HC4         2.4240   -0.2820    3.6190 ha        1 CXA      0.153000
     20 HC5         0.0120    0.2790    3.9510 ha        1 CXA      0.152000
     21 HC6        -1.4120    0.8760    2.0010 ha        1 CXA      0.136500
     22 H121       -1.6100    1.5010   -0.2550 hc        1 CXA      0.116200
     23 H122       -0.1110    1.8020   -1.2280 hc        1 CXA      0.116200
     24 HC13       -1.7630    0.1220   -2.3090 h4        1 CXA      0.073800
     25 HN17        0.1890   -1.5860   -0.7920 hn        1 CXA      0.355700
     26 H191       -0.1100   -5.8840   -0.6950 hn        1 CXA      0.430467
     27 H192       -1.1400   -5.9850   -1.9750 hn        1 CXA      0.430467
     28 H172       -0.7930   -2.0210   -2.1310 hn        1 CXA      0.355700
     29 H193        0.2930   -6.7900   -2.0070 hn        1 CXA      0.430467
@<TRIPOS>BOND
     1    1    2 ar  
     2    1    6 ar  
     3    1    7 1   
     4    2    3 ar  
     5    2   17 1   
     6    3    4 ar  
     7    3   18 1   
     8    4    5 ar  
     9    4   19 1   
    10    5    6 ar  
    11    5   20 1   
    12    6   21 1   
    13    7    8 1   
    14    7   22 1   
    15    7   23 1   
    16    8   12 2   
    17    8   24 1   
    18    9   10 2   
    19    9   11 2   
    20   12   25 1   
    21   12   28 1   
    22   13   14 1   
    23   13   15 1   
    24   13   16 1   
    25   14   26 1   
    26   14   27 1   
    27   14   29 1   
@<TRIPOS>SUBSTRUCTURE
     1 CXA         1 TEMP              0 ****  ****    0 ROOT
