@<TRIPOS>MOLECULE
CXA
   27    23     1     0     0
SMALL
bcc


@<TRIPOS>ATOM
      1 C1          0.6080    1.1290    0.9980 c1        1 CXA     -0.048000
      2 C2          2.0090    1.1210    0.8990 c1        1 CXA     -0.143750
      3 C3          2.7900    1.1360    2.0540 c1        1 CXA     -0.143750
      4 C4          2.1800    1.1590    3.3050 c1        1 CXA     -0.143750
      5 C5          0.7880    1.1670    3.4030 c1        1 CXA     -0.143750
      6 C6          0.0030    1.1510    2.2430 c1        1 CXA     -0.113000
      7 C12        -0.2550    1.1560   -0.2800 c3        1 CXA     -0.124000
      8 C13        -0.8080   -0.2130   -0.5430 c3        1 CXA     -0.048000
      9 C14        -2.3080   -0.2140   -0.2840 c2        1 CXA      0.319000
     10 O15        -3.0610    0.5400   -0.9520 o         1 CXA     -0.567000
     11 O16        -2.7930   -0.9250    0.6630 o         1 CXA     -0.567000
     12 N17        -0.5590   -0.5760   -1.9080 n3        1 CXA     -0.875000
     13 S18        -0.6130   -2.1490   -2.3590 s4        1 CXA      2.031800
     14 N19        -1.2690   -2.2920   -3.9160 n2        1 CXA     -0.960000
     15 O20        -1.3540   -2.9440   -1.4020 o         1 CXA     -0.577900
     16 O21         0.7050   -2.7660   -2.2830 o         1 CXA     -0.577900
     17 HC2         2.4310    1.1040    0.0310 ha        1 CXA      0.116000
     18 HC3         3.7750    1.0810    1.9850 ha        1 CXA      0.116000
     19 HC4         2.7230    1.1700    4.1070 ha        1 CXA      0.116000
     20 HC5         0.3640    1.1840    4.2740 ha        1 CXA      0.116000
     21 HC6        -0.9530    1.1570    2.3110 ha        1 CXA      0.188000
     22 H121       -0.9930    1.7880   -0.1620 hc        1 CXA      0.093500
     23 H122        0.2860    1.4300   -1.0230 hc        1 CXA      0.093500
     24 HC13       -0.3670   -0.8680    0.0610 h1        1 CXA      0.101000
     25 HN17       -0.4030    0.0820   -2.5420 hn        1 CXA      0.235000
     26 H191       -0.7820   -2.0090   -4.6520 hn        1 CXA      0.254000
     27 H192       -2.1430   -2.6000   -4.0280 hn        1 CXA      0.254000
@<TRIPOS>BOND
     1    1    6 1   
     2    1    7 1   
     3    2    3 1   
     4    2   17 1   
     5    3   18 1   
     6    4    5 1   
     7    4   19 1   
     8    5   20 1   
     9    6   21 1   
    10    7    8 1   
    11    7   22 1   
    12    7   23 1   
    13    8    9 1   
    14    8   12 1   
    15    8   24 1   
    16    9   10 1   
    17    9   11 1   
    18   12   13 1   
    19   12   25 1   
    20   13   15 1   
    21   13   16 1   
    22   14   26 1   
    23   14   27 1   
@<TRIPOS>SUBSTRUCTURE
     1 CXA         1 TEMP              0 ****  ****    0 ROOT
