@<TRIPOS>MOLECULE
CXA
   27    27     1     0     0
SMALL
bcc


@<TRIPOS>ATOM
      1 C1         -1.1840   -0.3210   -1.6090 ca        1 CXA     -0.045300
      2 C2         -0.8360   -1.4530   -2.3570 ca        1 CXA     -0.128500
      3 C3         -0.4840   -1.3320   -3.7010 ca        1 CXA     -0.133500
      4 C4         -0.4760   -0.0800   -4.3130 ca        1 CXA     -0.151000
      5 C5         -0.8190    1.0530   -3.5750 ca        1 CXA     -0.133500
      6 C6         -1.1720    0.9340   -2.2330 ca        1 CXA     -0.128500
      7 C12        -1.5870   -0.4460   -0.1840 c3        1 CXA     -0.040100
      8 C13        -0.6070    0.2150    0.7950 c3        1 CXA      0.096500
      9 C14        -1.3370    0.2940    2.1870 c         1 CXA      0.895600
     10 O15        -0.7820   -0.2170    3.2020 o         1 CXA     -0.830300
     11 O16        -2.4440    0.8920    2.1990 o         1 CXA     -0.830300
     12 N17         0.6810   -0.4350    0.8320 n3        1 CXA     -0.878100
     13 S18         2.0450    0.2950    1.3010 s6        1 CXA      1.579800
     14 N19         1.7450    1.0130    2.7050 n3        1 CXA     -1.030700
     15 O20         2.4420    1.3220    0.3870 o         1 CXA     -0.693300
     16 O21         3.0350   -0.7280    1.4500 o         1 CXA     -0.693300
     17 HC2        -0.8330   -2.4420   -1.8770 ha        1 CXA      0.132500
     18 HC3        -0.2080   -2.2270   -4.2760 ha        1 CXA      0.116500
     19 HC4        -0.1950    0.0150   -5.3710 ha        1 CXA      0.114000
     20 HC5        -0.8060    2.0430   -4.0510 ha        1 CXA      0.116500
     21 HC6        -1.4360    1.8280   -1.6470 ha        1 CXA      0.132500
     22 H121       -1.7190   -1.5260    0.0890 hc        1 CXA      0.066700
     23 H122       -2.5800    0.0650   -0.0290 hc        1 CXA      0.066700
     24 HC13       -0.4360    1.2800    0.4530 h1        1 CXA      0.050700
     25 HN17        0.6060   -1.4240    0.8980 hn        1 CXA      0.438800
     26 H191        1.9450    1.9660    2.8650 hn        1 CXA      0.455800
     27 H192        1.1280    0.6280    3.3920 hn        1 CXA      0.455800
@<TRIPOS>BOND
     1    1    2 ar  
     2    1    6 ar  
     3    1    7 1   
     4    2    3 ar  
     5    2   17 1   
     6    3    4 ar  
     7    3   18 1   
     8    4    5 ar  
     9    4   19 1   
    10    5    6 ar  
    11    5   20 1   
    12    6   21 1   
    13    7    8 1   
    14    7   22 1   
    15    7   23 1   
    16    8    9 1   
    17    8   12 1   
    18    8   24 1   
    19    9   10 1   
    20    9   11 1   
    21   12   13 1   
    22   12   25 1   
    23   13   14 1   
    24   13   15 2   
    25   13   16 2   
    26   14   26 1   
    27   14   27 1   
@<TRIPOS>SUBSTRUCTURE
     1 CXA         1 TEMP              0 ****  ****    0 ROOT
