@<TRIPOS>MOLECULE
CXD
   39    41     1     0     0
SMALL
bcc


@<TRIPOS>ATOM
      1 F01         0.1390   -0.1600    0.4090 f         1 CXD     -0.134900
      2 C02         1.4680    0.0410    0.2330 ca        1 CXD      0.123900
      3 C03         2.3430   -0.0500    1.3370 ca        1 CXD     -0.207300
      4 C04         1.8110   -0.2740    2.7110 c3        1 CXD      0.179100
      5 N05         1.0390   -1.5570    2.8060 n4        1 CXD     -0.684800
      6 C06         0.5610   -1.8590    4.2220 c         1 CXD      0.602700
      7 O07         0.9450   -1.0810    5.0860 o         1 CXD     -0.426100
      8 C08        -0.2600   -3.0200    4.3710 cc        1 CXD     -0.391200
      9 N09        -0.7710   -3.8700    3.3620 na        1 CXD     -0.315900
     10 C10        -1.5090   -4.8530    4.0040 cc        1 CXD      0.528400
     11 N11        -1.4960   -4.7080    5.3550 nd        1 CXD     -0.641000
     12 C12        -0.7330   -3.5770    5.6130 cd        1 CXD      0.550300
     13 CL1        -0.4310   -2.9970    7.1370 cl        1 CXD      0.002000
     14 C14         3.7120    0.1500    1.1390 ca        1 CXD     -0.067000
     15 C15         4.2130    0.4300   -0.1290 ca        1 CXD     -0.115000
     16 C16         3.3590    0.5040   -1.2370 ca        1 CXD      0.046400
     17 CL2         4.0110    0.8150   -2.7590 cl        1 CXD      0.004600
     18 C18         1.9760    0.3100   -1.0590 ca        1 CXD      0.084100
     19 O19         1.0700    0.2150   -2.1020 os        1 CXD     -0.232200
     20 C20         0.8700    1.3750   -2.8620 ca        1 CXD      0.090100
     21 C21         0.8800    2.6540   -2.3010 ca        1 CXD     -0.151000
     22 C22         0.5690    3.7430   -3.1220 ca        1 CXD      0.036400
     23 CL3         0.5790    5.3060   -2.4680 cl        1 CXD     -0.051400
     24 C24         0.2470    3.5570   -4.4700 ca        1 CXD     -0.093000
     25 C25         0.2400    2.2610   -5.0060 ca        1 CXD      0.031000
     26 C28         0.5580    1.1530   -4.2090 ca        1 CXD     -0.095000
     27 C26        -0.0880    2.0650   -6.3760 cg        1 CXD      0.211800
     28 N27        -0.3570    1.9050   -7.4960 n1        1 CXD     -0.312800
     29 H041        2.6450   -0.3120    3.4710 hx        1 CXD      0.125200
     30 H042        1.1070    0.5620    3.0020 hx        1 CXD      0.125200
     31 H14         4.4060    0.0970    1.9940 ha        1 CXD      0.162000
     32 H05         1.6310   -2.3300    2.4870 hn        1 CXD      0.456300
     33 H09        -0.6910   -3.7430    2.3870 hn        1 CXD      0.313700
     34 H10        -2.0350   -5.6610    3.4670 h5        1 CXD      0.105100
     35 H15         5.2980    0.5890   -0.2640 ha        1 CXD      0.182000
     36 H21         1.1280    2.8000   -1.2390 ha        1 CXD      0.155000
     37 H28         0.5560    0.1320   -4.6200 ha        1 CXD      0.172000
     38 H24        -0.0000    4.4200   -5.1100 ha        1 CXD      0.175000
     39 H052        0.2260   -1.4900    2.1800 hn        1 CXD      0.456300
@<TRIPOS>BOND
     1    1    2 1   
     2    2    3 ar  
     3    2   18 ar  
     4    3    4 1   
     5    3   14 ar  
     6    4    5 1   
     7    4   29 1   
     8    4   30 1   
     9    5    6 1   
    10    5   32 1   
    11    5   39 1   
    12    6    7 2   
    13    6    8 1   
    14    8    9 1   
    15    8   12 2   
    16    9   10 1   
    17    9   33 1   
    18   10   11 2   
    19   10   34 1   
    20   11   12 1   
    21   12   13 1   
    22   14   15 ar  
    23   14   31 1   
    24   15   16 ar  
    25   15   35 1   
    26   16   17 1   
    27   16   18 ar  
    28   18   19 1   
    29   19   20 1   
    30   20   21 ar  
    31   20   26 ar  
    32   21   22 ar  
    33   21   36 1   
    34   22   23 1   
    35   22   24 ar  
    36   24   25 ar  
    37   24   38 1   
    38   25   26 ar  
    39   25   27 1   
    40   26   37 1   
    41   27   28 3   
@<TRIPOS>SUBSTRUCTURE
     1 CXD         1 TEMP              0 ****  ****    0 ROOT
