@<TRIPOS>MOLECULE
CXD
   38    33     1     0     0
SMALL
bcc


@<TRIPOS>ATOM
      1 F01        -1.6790   -0.3480   -0.8060 f         1 CXD     -0.084000
      2 C02        -0.3410   -0.3060   -0.7640 c2        1 CXD      0.114000
      3 C03         0.3130   -0.2840    0.4580 c2        1 CXD     -0.146000
      4 C04        -0.4840   -0.1820    1.7410 c3        1 CXD      0.014000
      5 N05        -0.3960   -1.4120    2.4520 n         1 CXD     -0.355000
      6 C06        -1.1820   -1.6150    3.6170 c2        1 CXD      0.380000
      7 O07        -2.3530   -1.2930    3.6230 o         1 CXD     -0.394000
      8 C08        -0.5670   -2.2570    4.8420 c2        1 CXD     -0.164000
      9 N09         0.0900   -1.6190    5.8150 n2        1 CXD     -0.161000
     10 C10         0.4180   -2.5290    6.7640 c1        1 CXD     -0.061000
     11 N11        -0.0440   -3.7380    6.3640 n2        1 CXD     -0.128000
     12 C12        -0.6500   -3.5790    5.1850 c1        1 CXD     -0.073000
     13 CL1        -1.4600   -4.8250    4.2730 cl        1 CXD      0.032333
     14 C14         1.6990   -0.2880    0.5020 c1        1 CXD     -0.077000
     15 C15         2.4300   -0.3140   -0.6750 c1        1 CXD     -0.136000
     16 C16         1.7750   -0.3350   -1.8970 c1        1 CXD     -0.042000
     17 CL2         2.6940   -0.4390   -3.3760 cl        1 CXD      0.032333
     18 C18         0.3910   -0.3310   -1.9420 c2        1 CXD     -0.009000
     19 O19        -0.2730   -0.3610   -3.1810 os        1 CXD     -0.136000
     20 C20        -0.2410    0.9190   -3.7600 c2        1 CXD      0.078000
     21 C21         0.7130    1.2220   -4.7190 c2        1 CXD     -0.121000
     22 C22         0.7040    2.4610   -5.3390 c1        1 CXD     -0.042000
     23 CL3         1.9320    2.8590   -6.5120 cl        1 CXD      0.032333
     24 C24        -0.2600    3.3990   -5.0000 c2        1 CXD     -0.115000
     25 C25        -1.2140    3.0960   -4.0420 c1        1 CXD      0.029000
     26 C28        -1.2050    1.8570   -3.4220 c1        1 CXD     -0.149000
     27 C26        -2.2910    4.1040   -3.7030 c1        1 CXD     -0.100000
     28 N27        -3.1030    4.8630   -3.4480 n1        1 CXD     -0.023000
     29 H041       -1.4210    0.0060    1.5280 h1        1 CXD      0.120500
     30 H042       -0.1220    0.5410    2.2930 h1        1 CXD      0.120500
     31 H14         2.1600   -0.2720    1.3620 ha        1 CXD      0.175000
     32 H05         0.1430   -2.0800    2.1430 hn        1 CXD      0.241000
     33 H09         0.2820   -0.7290    5.8370 DU        1 CXD      0.246000
     34 H10         0.9030   -2.3450    7.5910 DU        1 CXD      0.246000
     35 H15         3.4050   -0.3160   -0.6440 ha        1 CXD      0.161000
     36 H21         1.3760    0.5530   -4.9750 ha        1 CXD      0.173000
     37 H28        -1.8770    1.6440   -2.7470 ha        1 CXD      0.160000
     38 H24        -0.2670    4.2720   -5.4370 ha        1 CXD      0.163000
@<TRIPOS>BOND
     1    1    2 1   
     2    2    3 1   
     3    2   18 1   
     4    3    4 1   
     5    3   14 1   
     6    4    5 1   
     7    4   29 1   
     8    4   30 1   
     9    5    6 1   
    10    5   32 1   
    11    6    7 1   
    12    6    8 1   
    13    8    9 1   
    14    8   12 1   
    15    9   10 1   
    16   10   11 1   
    17   11   12 1   
    18   14   31 1   
    19   15   16 1   
    20   15   35 1   
    21   16   18 1   
    22   18   19 1   
    23   19   20 1   
    24   20   21 1   
    25   20   26 1   
    26   21   22 1   
    27   21   36 1   
    28   22   24 1   
    29   24   25 1   
    30   24   38 1   
    31   25   27 1   
    32   26   37 1   
    33   27   28 1   
@<TRIPOS>SUBSTRUCTURE
     1 CXD         1 TEMP              0 ****  ****    0 ROOT
