@<TRIPOS>MOLECULE
CXD
   38    40     1     0     0
SMALL
bcc


@<TRIPOS>ATOM
      1 F01         0.2960   -0.9110   -0.1070 f         1 CXD     -0.126900
      2 C02        -0.0020    0.3310    0.3380 ca        1 CXD      0.135900
      3 C03         0.8590    0.9950    1.2360 ca        1 CXD     -0.138300
      4 C04         2.1050    0.3200    1.7450 c3        1 CXD      0.140300
      5 N05         3.0230   -0.0680    0.7130 n         1 CXD     -0.578900
      6 C06         4.2260    0.5870    0.5110 c         1 CXD      0.712700
      7 O07         4.6070    1.4960    1.2700 o         1 CXD     -0.573100
      8 C08         5.0400    0.1330   -0.6340 cc        1 CXD     -0.279200
      9 N09         4.5330   -0.1980   -1.8990 na        1 CXD     -0.305900
     10 C10         5.6250   -0.5390   -2.6960 cc        1 CXD      0.426400
     11 N11         6.7900   -0.4720   -2.0120 nd        1 CXD     -0.657000
     12 C12         6.4440   -0.0480   -0.7240 cd        1 CXD      0.444300
     13 CL1         7.5610    0.1760    0.4980 cl        1 CXD     -0.080000
     14 C14         0.5270    2.2800    1.6670 ca        1 CXD     -0.079000
     15 C15        -0.6370    2.9080    1.2320 ca        1 CXD     -0.130000
     16 C16        -1.4980    2.2600    0.3390 ca        1 CXD      0.030400
     17 CL2        -2.8990    3.0550   -0.1820 cl        1 CXD     -0.048400
     18 C18        -1.1830    0.9680   -0.1100 ca        1 CXD      0.043100
     19 O19        -1.9100    0.3340   -1.1120 os        1 CXD     -0.229200
     20 C20        -3.1150   -0.2520   -0.7270 ca        1 CXD      0.121100
     21 C21        -3.4550   -0.5330    0.5990 ca        1 CXD     -0.159000
     22 C22        -4.6730   -1.1700    0.8550 ca        1 CXD      0.041400
     23 CL3        -5.1070   -1.5180    2.4590 cl        1 CXD     -0.071400
     24 C24        -5.5350   -1.5260   -0.1850 ca        1 CXD     -0.114000
     25 C25        -5.1690   -1.2350   -1.5080 ca        1 CXD      0.022000
     26 C28        -3.9610   -0.5930   -1.7950 ca        1 CXD     -0.108000
     27 C26        -6.0430   -1.5950   -2.5720 cg        1 CXD      0.228800
     28 N27        -6.7570   -1.8900   -3.4410 n1        1 CXD     -0.344800
     29 H041        2.6360    1.0070    2.4680 h1        1 CXD      0.079200
     30 H042        1.7860   -0.6090    2.3050 h1        1 CXD      0.079200
     31 H14         1.2020    2.8090    2.3610 ha        1 CXD      0.160000
     32 H05         2.7440   -0.8060    0.1130 hn        1 CXD      0.318500
     33 H09         3.5940   -0.1030   -2.1850 hn        1 CXD      0.311700
     34 H10         5.5270   -0.8320   -3.7480 h5        1 CXD      0.072100
     35 H15        -0.8770    3.9240    1.5850 ha        1 CXD      0.162000
     36 H21        -2.7780   -0.2560    1.4210 ha        1 CXD      0.163000
     37 H28        -3.6640   -0.3590   -2.8280 ha        1 CXD      0.168000
     38 H24        -6.4910   -2.0280    0.0270 ha        1 CXD      0.164000
@<TRIPOS>BOND
     1    1    2 1   
     2    2    3 ar  
     3    2   18 ar  
     4    3    4 1   
     5    3   14 ar  
     6    4    5 1   
     7    4   29 1   
     8    4   30 1   
     9    5    6 1   
    10    5   32 1   
    11    6    7 2   
    12    6    8 1   
    13    8    9 1   
    14    8   12 2   
    15    9   10 1   
    16    9   33 1   
    17   10   11 2   
    18   10   34 1   
    19   11   12 1   
    20   12   13 1   
    21   14   15 ar  
    22   14   31 1   
    23   15   16 ar  
    24   15   35 1   
    25   16   17 1   
    26   16   18 ar  
    27   18   19 1   
    28   19   20 1   
    29   20   21 ar  
    30   20   26 ar  
    31   21   22 ar  
    32   21   36 1   
    33   22   23 1   
    34   22   24 ar  
    35   24   25 ar  
    36   24   38 1   
    37   25   26 ar  
    38   25   27 1   
    39   26   37 1   
    40   27   28 3   
@<TRIPOS>SUBSTRUCTURE
     1 CXD         1 TEMP              0 ****  ****    0 ROOT
