@<TRIPOS>MOLECULE
CXD
   39    41     1     0     0
SMALL
bcc


@<TRIPOS>ATOM
      1 F01         0.0730   -0.2170    0.3870 f         1 CXD     -0.134900
      2 C02         1.4060   -0.0290    0.2280 ca        1 CXD      0.123900
      3 C03         2.2680   -0.1440    1.3400 ca        1 CXD     -0.207300
      4 C04         1.7180   -0.3810    2.7050 c3        1 CXD      0.179100
      5 N05         0.9310   -1.6570    2.7740 n4        1 CXD     -0.684800
      6 C06         0.4360   -1.9730    4.1810 c         1 CXD      0.602700
      7 O07         0.8180   -1.2110    5.0600 o         1 CXD     -0.426100
      8 C08        -0.4000   -3.1270    4.3050 cc        1 CXD     -0.391200
      9 N09        -0.9110   -3.9560    3.2790 na        1 CXD     -0.315900
     10 C10        -1.6660   -4.9400    3.8980 cc        1 CXD      0.528400
     11 N11        -1.6650   -4.8150    5.2520 nd        1 CXD     -0.641000
     12 C12        -0.8910   -3.6970    5.5340 cd        1 CXD      0.550300
     13 CL1        -0.5970   -3.1430    7.0690 cl        1 CXD      0.002000
     14 C14         3.6410    0.0430    1.1600 ca        1 CXD     -0.067000
     15 C15         4.1590    0.3360   -0.0980 ca        1 CXD     -0.115000
     16 C16         3.3180    0.4340   -1.2150 ca        1 CXD      0.045400
     17 CL2         3.9910    0.7590   -2.7240 cl        1 CXD      0.004600
     18 C18         1.9310    0.2530   -1.0540 ca        1 CXD      0.084100
     19 O19         1.0360    0.1820   -2.1070 os        1 CXD     -0.232200
     20 C20         0.8580    1.3540   -2.8550 ca        1 CXD      0.090100
     21 C21         0.8750    2.6260   -2.2770 ca        1 CXD     -0.151000
     22 C22         0.5850    3.7280   -3.0870 ca        1 CXD      0.036400
     23 CL3         0.6050    5.2820   -2.4120 cl        1 CXD     -0.051400
     24 C24         0.2770    3.5630   -4.4410 ca        1 CXD     -0.093000
     25 C25         0.2620    2.2750   -4.9940 ca        1 CXD      0.031000
     26 C28         0.5590    1.1530   -4.2080 ca        1 CXD     -0.095000
     27 C26        -0.0530    2.1010   -6.3700 cg        1 CXD      0.211800
     28 N27        -0.3110    1.9580   -7.4950 n1        1 CXD     -0.312800
     29 H041        1.0210    0.4580    3.0010 hx        1 CXD      0.125200
     30 H042        2.5440   -0.4390    3.4740 hx        1 CXD      0.125200
     31 H14         4.3250   -0.0290    2.0220 ha        1 CXD      0.162000
     32 H05         0.1260   -1.5720    2.1400 hn        1 CXD      0.456800
     33 H09        -0.8210   -3.8150    2.3060 hn        1 CXD      0.313700
     34 H10        -2.1960   -5.7340    3.3450 h5        1 CXD      0.105100
     35 H15         5.2470    0.4850   -0.2190 ha        1 CXD      0.182000
     36 H21         1.1120    2.7550   -1.2110 ha        1 CXD      0.155000
     37 H28         0.5500    0.1380   -4.6330 ha        1 CXD      0.172000
     38 H24         0.0470    4.4380   -5.0720 ha        1 CXD      0.175000
     39 H052        1.5190   -2.4320    2.4500 hn        1 CXD      0.456800
@<TRIPOS>BOND
     1    1    2 1   
     2    2    3 ar  
     3    2   18 ar  
     4    3    4 1   
     5    3   14 ar  
     6    4    5 1   
     7    4   29 1   
     8    4   30 1   
     9    5    6 1   
    10    5   32 1   
    11    5   39 1   
    12    6    7 2   
    13    6    8 1   
    14    8    9 1   
    15    8   12 2   
    16    9   10 1   
    17    9   33 1   
    18   10   11 2   
    19   10   34 1   
    20   11   12 1   
    21   12   13 1   
    22   14   15 ar  
    23   14   31 1   
    24   15   16 ar  
    25   15   35 1   
    26   16   17 1   
    27   16   18 ar  
    28   18   19 1   
    29   19   20 1   
    30   20   21 ar  
    31   20   26 ar  
    32   21   22 ar  
    33   21   36 1   
    34   22   23 1   
    35   22   24 ar  
    36   24   25 ar  
    37   24   38 1   
    38   25   26 ar  
    39   25   27 1   
    40   26   37 1   
    41   27   28 3   
@<TRIPOS>SUBSTRUCTURE
     1 CXD         1 TEMP              0 ****  ****    0 ROOT
