@<TRIPOS>MOLECULE
CXE
   68    67     1     0     0
SMALL
bcc


@<TRIPOS>ATOM
      1 C1          0.0920    1.4950  -17.3460 c3        1 CXE     -0.092100
      2 C2         -0.9230    1.6770  -16.2470 c3        1 CXE     -0.080400
      3 C3         -1.2160    0.3710  -15.5400 c3        1 CXE     -0.079400
      4 C4         -2.2360    0.5590  -14.4370 c3        1 CXE     -0.079400
      5 C5         -2.5280   -0.7480  -13.7300 c3        1 CXE     -0.079400
      6 C6         -3.5480   -0.5600  -12.6270 c3        1 CXE     -0.079400
      7 C7         -3.8400   -1.8660  -11.9220 c3        1 CXE     -0.078400
      8 C8         -4.8600   -1.6780  -10.8190 c3        1 CXE     -0.078400
      9 C9         -5.1490   -2.9860  -10.1160 c3        1 CXE     -0.083400
     10 C10        -6.1730   -2.7800   -9.0140 c3        1 CXE      0.132400
     11 O11        -6.3850   -4.0560   -8.4120 os        1 CXE     -0.428600
     12 C12        -7.3200   -3.9960   -7.3370 c3        1 CXE      0.126400
     13 C13        -7.5720   -5.4370   -6.9040 c3        1 CXE      0.126400
     14 O14        -8.9340   -5.7210   -7.2190 os        1 CXE     -0.433600
     15 C15        -9.2640   -7.0920   -7.0080 c3        1 CXE      0.094400
     16 C16       -10.7500   -7.2460   -7.3200 c3        1 CXE      0.131400
     17 O17       -10.9690   -7.6030   -8.6760 os        1 CXE     -0.427600
     18 C18       -10.8510   -6.4970   -9.5730 c3        1 CXE      0.120400
     19 C19       -10.9160   -7.0960  -10.9750 c3        1 CXE      0.128400
     20 O20       -11.1340   -5.9980  -11.8580 os        1 CXE     -0.426600
     21 C21       -11.2090   -6.4140  -13.2200 c3        1 CXE      0.128400
     22 C22       -11.5690   -5.1730  -14.0300 c3        1 CXE      0.128400
     23 O23       -12.9380   -5.3150  -14.4040 os        1 CXE     -0.436600
     24 C24       -13.4410   -4.1630  -15.0760 c3        1 CXE      0.086400
     25 C25       -14.9210   -4.4340  -15.3290 c3        1 CXE      0.132400
     26 O26       -15.6600   -4.4570  -14.1260 oh        1 CXE     -0.600800
     27 H011       -0.2800    0.7690  -18.1100 hc        1 CXE      0.032700
     28 H012        1.0540    1.1060  -16.9340 hc        1 CXE      0.032700
     29 H013        0.2930    2.4690  -17.8540 hc        1 CXE      0.032700
     30 H021       -0.5420    2.4270  -15.5040 hc        1 CXE      0.038700
     31 H022       -1.8730    2.0910  -16.6760 hc        1 CXE      0.038700
     32 H031       -1.5980   -0.3800  -16.2810 hc        1 CXE      0.039700
     33 H032       -0.2670   -0.0440  -15.1080 hc        1 CXE      0.039700
     34 H041       -3.1840    0.9740  -14.8680 hc        1 CXE      0.039700
     35 H042       -1.8540    1.3100  -13.6950 hc        1 CXE      0.039700
     36 H051       -2.9100   -1.4990  -14.4710 hc        1 CXE      0.039700
     37 H052       -1.5790   -1.1630  -13.2990 hc        1 CXE      0.039700
     38 H061       -4.4970   -0.1450  -13.0590 hc        1 CXE      0.039700
     39 H062       -3.1660    0.1910  -11.8860 hc        1 CXE      0.039700
     40 H071       -2.8910   -2.2810  -11.4890 hc        1 CXE      0.041700
     41 H072       -4.2220   -2.6170  -12.6620 hc        1 CXE      0.041700
     42 H081       -5.8090   -1.2630  -11.2510 hc        1 CXE      0.040200
     43 H082       -4.4780   -0.9270  -10.0780 hc        1 CXE      0.040200
     44 H091       -5.5390   -3.7410  -10.8470 hc        1 CXE      0.054700
     45 H092       -4.2080   -3.4070   -9.6760 hc        1 CXE      0.054700
     46 H101       -7.1420   -2.3950   -9.4300 h1        1 CXE      0.026700
     47 H102       -5.7940   -2.0580   -8.2420 h1        1 CXE      0.026700
     48 H121       -6.8770   -3.4030   -6.4950 h1        1 CXE      0.042700
     49 H122       -8.2730   -3.5100   -7.6770 h1        1 CXE      0.042700
     50 H131       -7.4200   -5.5490   -5.7980 h1        1 CXE      0.043700
     51 H132       -6.8910   -6.1420   -7.4510 h1        1 CXE      0.043700
     52 H151       -8.6460   -7.7390   -7.6860 h1        1 CXE      0.039700
     53 H152       -9.0620   -7.3670   -5.9390 h1        1 CXE      0.039700
     54 H161      -11.3050   -6.3070   -7.0590 h1        1 CXE      0.060700
     55 H162      -11.1640   -8.1170   -6.7450 h1        1 CXE      0.060700
     56 H181      -11.7040   -5.7880   -9.4050 h1        1 CXE      0.053200
     57 H182       -9.8810   -5.9620   -9.4030 h1        1 CXE      0.053200
     58 H191      -11.7620   -7.8280  -11.0540 h1        1 CXE      0.038700
     59 H192       -9.9540   -7.6110  -11.2340 h1        1 CXE      0.038700
     60 H211      -10.2110   -6.8130  -13.5400 h1        1 CXE      0.043700
     61 H212      -11.9910   -7.2100  -13.3390 h1        1 CXE      0.043700
     62 H221      -10.9390   -5.1150  -14.9570 h1        1 CXE      0.044700
     63 H222      -11.4300   -4.2420  -13.4180 h1        1 CXE      0.044700
     64 H241      -13.3090   -3.2560  -14.4280 h1        1 CXE      0.039200
     65 H242      -12.8940   -4.0190  -16.0430 h1        1 CXE      0.039200
     66 H251      -15.0440   -5.4070  -15.8760 h1        1 CXE      0.051700
     67 H252      -15.3640   -3.5960  -15.9290 h1        1 CXE      0.051700
     68 H26       -15.2410   -5.1110  -13.5500 ho        1 CXE      0.415000
@<TRIPOS>BOND
     1    1    2 1   
     2    1   27 1   
     3    1   28 1   
     4    1   29 1   
     5    2    3 1   
     6    2   30 1   
     7    2   31 1   
     8    3    4 1   
     9    3   32 1   
    10    3   33 1   
    11    4    5 1   
    12    4   34 1   
    13    4   35 1   
    14    5    6 1   
    15    5   36 1   
    16    5   37 1   
    17    6    7 1   
    18    6   38 1   
    19    6   39 1   
    20    7    8 1   
    21    7   40 1   
    22    7   41 1   
    23    8    9 1   
    24    8   42 1   
    25    8   43 1   
    26    9   10 1   
    27    9   44 1   
    28    9   45 1   
    29   10   11 1   
    30   10   46 1   
    31   10   47 1   
    32   11   12 1   
    33   12   13 1   
    34   12   48 1   
    35   12   49 1   
    36   13   14 1   
    37   13   50 1   
    38   13   51 1   
    39   14   15 1   
    40   15   16 1   
    41   15   52 1   
    42   15   53 1   
    43   16   17 1   
    44   16   54 1   
    45   16   55 1   
    46   17   18 1   
    47   18   19 1   
    48   18   56 1   
    49   18   57 1   
    50   19   20 1   
    51   19   58 1   
    52   19   59 1   
    53   20   21 1   
    54   21   22 1   
    55   21   60 1   
    56   21   61 1   
    57   22   23 1   
    58   22   62 1   
    59   22   63 1   
    60   23   24 1   
    61   24   25 1   
    62   24   64 1   
    63   24   65 1   
    64   25   26 1   
    65   25   66 1   
    66   25   67 1   
    67   26   68 1   
@<TRIPOS>SUBSTRUCTURE
     1 CXE         1 TEMP              0 ****  ****    0 ROOT
