@<TRIPOS>MOLECULE
CXE
   68    67     1     0     0
SMALL
bcc


@<TRIPOS>ATOM
      1 C1          0.2970   -1.5200   -0.8740 c3        1 CXE     -0.092100
      2 C2          1.7410   -1.1350   -0.6850 c3        1 CXE     -0.080400
      3 C3          2.2360   -1.4990    0.6990 c3        1 CXE     -0.079400
      4 C4          3.6870   -1.1100    0.8850 c3        1 CXE     -0.079400
      5 C5          4.1810   -1.4740    2.2690 c3        1 CXE     -0.079400
      6 C6          5.6310   -1.0840    2.4550 c3        1 CXE     -0.079400
      7 C7          6.1240   -1.4480    3.8390 c3        1 CXE     -0.078400
      8 C8          7.5750   -1.0560    4.0260 c3        1 CXE     -0.078400
      9 C9          8.0620   -1.4200    5.4110 c3        1 CXE     -0.083400
     10 C10         9.5170   -1.0190    5.5820 c3        1 CXE      0.132400
     11 O11         9.8890   -1.3920    6.9080 os        1 CXE     -0.428600
     12 C12        11.2500   -1.0810    7.1940 c3        1 CXE      0.126400
     13 C13        11.4560   -1.3680    8.6780 c3        1 CXE      0.126400
     14 O14        11.6840   -0.1070    9.3050 os        1 CXE     -0.433600
     15 C15        11.7360   -0.2100   10.7260 c3        1 CXE      0.094400
     16 C16        12.0400    1.1850   11.2640 c3        1 CXE      0.131400
     17 O17        10.8530    1.9070   11.5560 os        1 CXE     -0.427600
     18 C18        10.2220    2.4430   10.3920 c3        1 CXE      0.120400
     19 C19         8.8830    2.9970   10.8680 c3        1 CXE      0.128400
     20 O20         8.3870    3.7960    9.7960 os        1 CXE     -0.426600
     21 C21         7.1210    4.3760   10.1010 c3        1 CXE      0.128400
     22 C22         6.7730    5.2920    8.9330 c3        1 CXE      0.128400
     23 O23         6.9660    6.6280    9.3930 os        1 CXE     -0.436600
     24 C24         6.7830    7.5910    8.3590 c3        1 CXE      0.086400
     25 C25         7.1040    8.9460    8.9820 c3        1 CXE      0.132400
     26 O26         8.4750    9.0630    9.2960 oh        1 CXE     -0.600800
     27 H011        0.1620   -2.6200   -0.7430 hc        1 CXE      0.032700
     28 H012       -0.0480   -1.2420   -1.9000 hc        1 CXE      0.032700
     29 H013       -0.3520   -0.9960   -0.1310 hc        1 CXE      0.032700
     30 H021        1.8610   -0.0300   -0.8450 hc        1 CXE      0.038700
     31 H022        2.3730   -1.6500   -1.4550 hc        1 CXE      0.038700
     32 H031        2.1190   -2.6030    0.8610 hc        1 CXE      0.039700
     33 H032        1.6070   -0.9830    1.4710 hc        1 CXE      0.039700
     34 H041        3.8040   -0.0060    0.7230 hc        1 CXE      0.039700
     35 H042        4.3170   -1.6260    0.1130 hc        1 CXE      0.039700
     36 H051        4.0640   -2.5790    2.4310 hc        1 CXE      0.039700
     37 H052        3.5510   -0.9590    3.0410 hc        1 CXE      0.039700
     38 H061        6.2620   -1.6000    1.6830 hc        1 CXE      0.039700
     39 H062        5.7480    0.0190    2.2920 hc        1 CXE      0.039700
     40 H071        5.4940   -0.9330    4.6110 hc        1 CXE      0.041700
     41 H072        6.0090   -2.5520    4.0020 hc        1 CXE      0.041700
     42 H081        7.6900    0.0480    3.8620 hc        1 CXE      0.040200
     43 H082        8.2060   -1.5730    3.2550 hc        1 CXE      0.040200
     44 H091        7.4420   -0.9040    6.1890 hc        1 CXE      0.054700
     45 H092        7.9590   -2.5230    5.5820 hc        1 CXE      0.054700
     46 H101       10.1720   -1.5530    4.8440 h1        1 CXE      0.026700
     47 H102        9.6480    0.0880    5.4520 h1        1 CXE      0.026700
     48 H121       11.4610   -0.0030    6.9630 h1        1 CXE      0.042700
     49 H122       11.9160   -1.7350    6.5710 h1        1 CXE      0.042700
     50 H131       12.3540   -2.0220    8.8320 h1        1 CXE      0.043700
     51 H132       10.5490   -1.8630    9.1170 h1        1 CXE      0.043700
     52 H151       12.5500   -0.9240   11.0210 h1        1 CXE      0.039700
     53 H152       10.7510   -0.5810   11.1160 h1        1 CXE      0.039700
     54 H161       12.5520    1.0990   12.2600 h1        1 CXE      0.060700
     55 H162       12.6840    1.7520   10.5420 h1        1 CXE      0.060700
     56 H181       10.8600    3.2610    9.9650 h1        1 CXE      0.053700
     57 H182       10.0800    1.6400    9.6230 h1        1 CXE      0.053700
     58 H191        8.1640    2.1670   11.0920 h1        1 CXE      0.038700
     59 H192        9.0180    3.6270   11.7870 h1        1 CXE      0.038700
     60 H211        6.3550    3.5620   10.2010 h1        1 CXE      0.043700
     61 H212        7.1820    4.9560   11.0600 h1        1 CXE      0.043700
     62 H221        5.7000    5.1560    8.6360 h1        1 CXE      0.044700
     63 H222        7.4390    5.0860    8.0530 h1        1 CXE      0.044700
     64 H241        5.7220    7.5630    7.9980 h1        1 CXE      0.039200
     65 H242        7.4790    7.3720    7.5060 h1        1 CXE      0.039200
     66 H251        6.9020    9.7640    8.2400 h1        1 CXE      0.051700
     67 H252        6.4820    9.1010    9.9040 h1        1 CXE      0.051700
     68 H26         8.6990    8.3150    9.8650 ho        1 CXE      0.415000
@<TRIPOS>BOND
     1    1    2 1   
     2    1   27 1   
     3    1   28 1   
     4    1   29 1   
     5    2    3 1   
     6    2   30 1   
     7    2   31 1   
     8    3    4 1   
     9    3   32 1   
    10    3   33 1   
    11    4    5 1   
    12    4   34 1   
    13    4   35 1   
    14    5    6 1   
    15    5   36 1   
    16    5   37 1   
    17    6    7 1   
    18    6   38 1   
    19    6   39 1   
    20    7    8 1   
    21    7   40 1   
    22    7   41 1   
    23    8    9 1   
    24    8   42 1   
    25    8   43 1   
    26    9   10 1   
    27    9   44 1   
    28    9   45 1   
    29   10   11 1   
    30   10   46 1   
    31   10   47 1   
    32   11   12 1   
    33   12   13 1   
    34   12   48 1   
    35   12   49 1   
    36   13   14 1   
    37   13   50 1   
    38   13   51 1   
    39   14   15 1   
    40   15   16 1   
    41   15   52 1   
    42   15   53 1   
    43   16   17 1   
    44   16   54 1   
    45   16   55 1   
    46   17   18 1   
    47   18   19 1   
    48   18   56 1   
    49   18   57 1   
    50   19   20 1   
    51   19   58 1   
    52   19   59 1   
    53   20   21 1   
    54   21   22 1   
    55   21   60 1   
    56   21   61 1   
    57   22   23 1   
    58   22   62 1   
    59   22   63 1   
    60   23   24 1   
    61   24   25 1   
    62   24   64 1   
    63   24   65 1   
    64   25   26 1   
    65   25   66 1   
    66   25   67 1   
    67   26   68 1   
@<TRIPOS>SUBSTRUCTURE
     1 CXE         1 TEMP              0 ****  ****    0 ROOT
