@<TRIPOS>MOLECULE
CXE
   68    67     1     0     0
SMALL
bcc


@<TRIPOS>ATOM
      1 C1          0.2980   -1.6310   -0.9650 c3        1 CXE     -0.092100
      2 C2          1.7310   -1.2120   -0.7640 c3        1 CXE     -0.080400
      3 C3          2.2300   -1.5800    0.6170 c3        1 CXE     -0.079400
      4 C4          3.6690   -1.1570    0.8140 c3        1 CXE     -0.079400
      5 C5          4.1670   -1.5260    2.1950 c3        1 CXE     -0.079400
      6 C6          5.6060   -1.1030    2.3920 c3        1 CXE     -0.079400
      7 C7          6.1030   -1.4720    3.7730 c3        1 CXE     -0.078400
      8 C8          7.5430   -1.0490    3.9700 c3        1 CXE     -0.078400
      9 C9          8.0360   -1.4190    5.3510 c3        1 CXE     -0.083400
     10 C10         9.4800   -0.9880    5.5320 c3        1 CXE      0.132400
     11 O11         9.8580   -1.3720    6.8530 os        1 CXE     -0.428600
     12 C12        11.2130   -1.0390    7.1440 c3        1 CXE      0.126400
     13 C13        11.4250   -1.3510    8.6230 c3        1 CXE      0.126400
     14 O14        11.6580   -0.1020    9.2700 os        1 CXE     -0.433600
     15 C15        11.7200   -0.2290   10.6890 c3        1 CXE      0.094400
     16 C16        12.0330    1.1550   11.2480 c3        1 CXE      0.131400
     17 O17        10.8510    1.8770   11.5590 os        1 CXE     -0.427600
     18 C18        10.2180    2.4380   10.4080 c3        1 CXE      0.120400
     19 C19         8.8840    2.9910   10.9010 c3        1 CXE      0.128400
     20 O20         8.4020    3.8330    9.8560 os        1 CXE     -0.426600
     21 C21         7.1430    4.4200   10.1800 c3        1 CXE      0.128400
     22 C22         6.8110    5.3830    9.0450 c3        1 CXE      0.128400
     23 O23         7.0230    6.6980    9.5550 os        1 CXE     -0.436600
     24 C24         6.8560    7.7020    8.5560 c3        1 CXE      0.086400
     25 C25         7.1960    9.0280    9.2290 c3        1 CXE      0.132400
     26 O26         8.5690    9.1130    9.5490 oh        1 CXE     -0.600800
     27 H011        0.1900   -2.7370   -0.8460 hc        1 CXE      0.032700
     28 H012       -0.0500   -1.3510   -1.9880 hc        1 CXE      0.032700
     29 H013       -0.3670   -1.1330   -0.2180 hc        1 CXE      0.032700
     30 H021        1.8240   -0.1040   -0.9120 hc        1 CXE      0.038700
     31 H022        2.3790   -1.7030   -1.5380 hc        1 CXE      0.038700
     32 H031        2.1390   -2.6890    0.7650 hc        1 CXE      0.039700
     33 H032        1.5840   -1.0900    1.3920 hc        1 CXE      0.039700
     34 H041        3.7600   -0.0490    0.6650 hc        1 CXE      0.039700
     35 H042        4.3150   -1.6480    0.0380 hc        1 CXE      0.039700
     36 H051        4.0770   -2.6350    2.3440 hc        1 CXE      0.039700
     37 H052        3.5210   -1.0350    2.9710 hc        1 CXE      0.039700
     38 H061        6.2520   -1.5940    1.6170 hc        1 CXE      0.039700
     39 H062        5.6970    0.0050    2.2430 hc        1 CXE      0.039700
     40 H071        5.4580   -0.9810    4.5490 hc        1 CXE      0.041700
     41 H072        6.0130   -2.5800    3.9220 hc        1 CXE      0.041700
     42 H081        7.6330    0.0600    3.8210 hc        1 CXE      0.040200
     43 H082        8.1880   -1.5400    3.1940 hc        1 CXE      0.040200
     44 H091        7.4020   -0.9260    6.1340 hc        1 CXE      0.054700
     45 H092        7.9550   -2.5260    5.5080 hc        1 CXE      0.054700
     46 H101       10.1490   -1.4970    4.7870 h1        1 CXE      0.026700
     47 H102        9.5870    0.1240    5.4190 h1        1 CXE      0.026700
     48 H121       11.4000    0.0480    6.9360 h1        1 CXE      0.042700
     49 H122       11.8920   -1.6650    6.5080 h1        1 CXE      0.042700
     50 H131       12.3220   -2.0100    8.7620 h1        1 CXE      0.043700
     51 H132       10.5190   -1.8520    9.0580 h1        1 CXE      0.043700
     52 H151       12.5330   -0.9520   10.9660 h1        1 CXE      0.039700
     53 H152       10.7360   -0.6030   11.0790 h1        1 CXE      0.039700
     54 H161       12.5500    1.0490   12.2400 h1        1 CXE      0.060700
     55 H162       12.6760    1.7310   10.5330 h1        1 CXE      0.060700
     56 H181       10.8590    3.2590    9.9920 h1        1 CXE      0.053200
     57 H182       10.0670    1.6500    9.6250 h1        1 CXE      0.053200
     58 H191        8.1540    2.1630   11.0940 h1        1 CXE      0.038700
     59 H192        9.0260    3.5870   11.8410 h1        1 CXE      0.038700
     60 H211        6.3650    3.6140   10.2480 h1        1 CXE      0.043700
     61 H212        7.2090    4.9630   11.1600 h1        1 CXE      0.043700
     62 H221        5.7360    5.2750    8.7420 h1        1 CXE      0.044700
     63 H222        7.4750    5.2000    8.1590 h1        1 CXE      0.044700
     64 H241        5.7960    7.7030    8.1930 h1        1 CXE      0.039200
     65 H242        7.5500    7.5030    7.6970 h1        1 CXE      0.039200
     66 H251        7.0080    9.8750    8.5180 h1        1 CXE      0.051700
     67 H252        6.5760    9.1580   10.1550 h1        1 CXE      0.051700
     68 H26         8.7800    8.3400   10.0900 ho        1 CXE      0.415000
@<TRIPOS>BOND
     1    1    2 1   
     2    1   27 1   
     3    1   28 1   
     4    1   29 1   
     5    2    3 1   
     6    2   30 1   
     7    2   31 1   
     8    3    4 1   
     9    3   32 1   
    10    3   33 1   
    11    4    5 1   
    12    4   34 1   
    13    4   35 1   
    14    5    6 1   
    15    5   36 1   
    16    5   37 1   
    17    6    7 1   
    18    6   38 1   
    19    6   39 1   
    20    7    8 1   
    21    7   40 1   
    22    7   41 1   
    23    8    9 1   
    24    8   42 1   
    25    8   43 1   
    26    9   10 1   
    27    9   44 1   
    28    9   45 1   
    29   10   11 1   
    30   10   46 1   
    31   10   47 1   
    32   11   12 1   
    33   12   13 1   
    34   12   48 1   
    35   12   49 1   
    36   13   14 1   
    37   13   50 1   
    38   13   51 1   
    39   14   15 1   
    40   15   16 1   
    41   15   52 1   
    42   15   53 1   
    43   16   17 1   
    44   16   54 1   
    45   16   55 1   
    46   17   18 1   
    47   18   19 1   
    48   18   56 1   
    49   18   57 1   
    50   19   20 1   
    51   19   58 1   
    52   19   59 1   
    53   20   21 1   
    54   21   22 1   
    55   21   60 1   
    56   21   61 1   
    57   22   23 1   
    58   22   62 1   
    59   22   63 1   
    60   23   24 1   
    61   24   25 1   
    62   24   64 1   
    63   24   65 1   
    64   25   26 1   
    65   25   66 1   
    66   25   67 1   
    67   26   68 1   
@<TRIPOS>SUBSTRUCTURE
     1 CXE         1 TEMP              0 ****  ****    0 ROOT
