@<TRIPOS>MOLECULE
CXE
   68    67     1     0     0
SMALL
bcc


@<TRIPOS>ATOM
      1 C1         -0.2720    8.4020   -4.4600 c3        1 CXE     -0.092100
      2 C2          0.2780    7.2550   -5.3180 c3        1 CXE     -0.080400
      3 C3         -0.5060    5.9680   -5.0170 c3        1 CXE     -0.079400
      4 C4          0.1450    4.7830   -5.7590 c3        1 CXE     -0.079400
      5 C5         -0.5510    3.4730   -5.3450 c3        1 CXE     -0.079400
      6 C6          0.3080    2.2730   -5.7880 c3        1 CXE     -0.079400
      7 C7         -0.2490    0.9820   -5.1580 c3        1 CXE     -0.078400
      8 C8          0.8700   -0.0710   -5.0720 c3        1 CXE     -0.078400
      9 C9          0.3960   -1.2570   -4.2090 c3        1 CXE     -0.083400
     10 C10         1.6020   -2.1330   -3.8320 c3        1 CXE      0.132400
     11 O11         1.3820   -2.7180   -2.5490 os        1 CXE     -0.427600
     12 C12         2.4720   -3.5080   -2.0800 c3        1 CXE      0.126400
     13 C13         2.0800   -4.1890   -0.7580 c3        1 CXE      0.128400
     14 O14         2.5190   -3.3900    0.3360 os        1 CXE     -0.429600
     15 C15         2.4910   -4.0640    1.5920 c3        1 CXE      0.128400
     16 C16         2.8060   -3.0670    2.7150 c3        1 CXE      0.128400
     17 O17         1.9390   -3.3060    3.8190 os        1 CXE     -0.435600
     18 C18         1.6890   -2.1530    4.6160 c3        1 CXE      0.094400
     19 C19         1.3080   -2.5860    6.0380 c3        1 CXE      0.129400
     20 O20        -0.1080   -2.5200    6.1920 os        1 CXE     -0.425600
     21 C21        -0.5290   -2.0570    7.4730 c3        1 CXE      0.120400
     22 C22        -1.8990   -2.2180    6.7950 c3        1 CXE      0.128400
     23 O23        -2.8860   -1.5220    7.5490 os        1 CXE     -0.429600
     24 C24        -4.2170   -1.9510    7.2910 c3        1 CXE      0.128400
     25 C25        -5.2010   -0.9050    7.8170 c3        1 CXE      0.127400
     26 O26        -6.5200   -1.2840    7.4750 oh        1 CXE     -0.603800
     27 H011       -0.1590    8.1820   -3.5080 hc        1 CXE      0.032700
     28 H012       -1.2270    8.5290   -4.6560 hc        1 CXE      0.032700
     29 H013        0.2180    9.2290   -4.6660 hc        1 CXE      0.032700
     30 H021        0.1810    7.4830   -6.2690 hc        1 CXE      0.038700
     31 H022        1.2280    7.1160   -5.1090 hc        1 CXE      0.038700
     32 H031       -0.4940    5.7950   -4.0500 hc        1 CXE      0.039700
     33 H032       -1.4370    6.0720   -5.3190 hc        1 CXE      0.039700
     34 H041        0.0500    4.9120   -6.7300 hc        1 CXE      0.039200
     35 H042        1.0990    4.7360   -5.5260 hc        1 CXE      0.039200
     36 H051       -1.4340    3.4210   -5.7740 hc        1 CXE      0.039700
     37 H052       -0.6590    3.4550   -4.3690 hc        1 CXE      0.039700
     38 H061        0.2830    2.1970   -6.7690 hc        1 CXE      0.039700
     39 H062        1.2360    2.4080   -5.4940 hc        1 CXE      0.039700
     40 H071       -0.9830    0.6360   -5.7130 hc        1 CXE      0.041700
     41 H072       -0.5850    1.1770   -4.2550 hc        1 CXE      0.041700
     42 H081        1.6690    0.3310   -4.6640 hc        1 CXE      0.040200
     43 H082        1.0900   -0.3910   -5.9770 hc        1 CXE      0.040200
     44 H091       -0.0310   -0.9160   -3.3910 hc        1 CXE      0.054700
     45 H092       -0.2530   -1.7940   -4.7180 hc        1 CXE      0.054700
     46 H101        1.7130   -2.8440   -4.5030 h1        1 CXE      0.026200
     47 H102        2.4130   -1.5790   -3.8050 h1        1 CXE      0.026200
     48 H121        3.2550   -2.9320   -1.9320 h1        1 CXE      0.042200
     49 H122        2.6920   -4.1950   -2.7490 h1        1 CXE      0.042200
     50 H131        2.5030   -5.0750   -0.7070 h1        1 CXE      0.044700
     51 H132        1.1040   -4.2890   -0.7180 h1        1 CXE      0.044700
     52 H151        3.1630   -4.7830    1.5930 h1        1 CXE      0.040700
     53 H152        1.5990   -4.4490    1.7360 h1        1 CXE      0.040700
     54 H161        3.7390   -3.1810    3.0010 h1        1 CXE      0.041700
     55 H162        2.6730   -2.1510    2.3870 h1        1 CXE      0.041700
     56 H181        2.4990   -1.5940    4.6490 h1        1 CXE      0.043200
     57 H182        0.9520   -1.6380    4.2220 h1        1 CXE      0.043200
     58 H191        1.7360   -1.9880    6.6880 h1        1 CXE      0.060200
     59 H192        1.6110   -3.5080    6.1910 h1        1 CXE      0.060200
     60 H211        0.1450   -2.7180    7.7490 h1        1 CXE      0.053200
     61 H212       -1.0200   -2.5020    8.1990 h1        1 CXE      0.053200
     62 H221       -2.1330   -3.1720    6.7510 h1        1 CXE      0.042700
     63 H222       -1.8600   -1.8470    5.8860 h1        1 CXE      0.042700
     64 H241       -4.3440   -2.0630    6.3230 h1        1 CXE      0.040700
     65 H242       -4.3780   -2.8090    7.7440 h1        1 CXE      0.040700
     66 H251       -5.1210   -0.8420    8.7940 h1        1 CXE      0.034700
     67 H252       -4.9970   -0.0330    7.4150 h1        1 CXE      0.034700
     68 H26        -7.0830   -0.6240    7.6840 ho        1 CXE      0.404000
@<TRIPOS>BOND
     1    1    2 1   
     2    1   27 1   
     3    1   28 1   
     4    1   29 1   
     5    2    3 1   
     6    2   30 1   
     7    2   31 1   
     8    3    4 1   
     9    3   32 1   
    10    3   33 1   
    11    4    5 1   
    12    4   34 1   
    13    4   35 1   
    14    5    6 1   
    15    5   36 1   
    16    5   37 1   
    17    6    7 1   
    18    6   38 1   
    19    6   39 1   
    20    7    8 1   
    21    7   40 1   
    22    7   41 1   
    23    8    9 1   
    24    8   42 1   
    25    8   43 1   
    26    9   10 1   
    27    9   44 1   
    28    9   45 1   
    29   10   11 1   
    30   10   46 1   
    31   10   47 1   
    32   11   12 1   
    33   12   13 1   
    34   12   48 1   
    35   12   49 1   
    36   13   14 1   
    37   13   50 1   
    38   13   51 1   
    39   14   15 1   
    40   15   16 1   
    41   15   52 1   
    42   15   53 1   
    43   16   17 1   
    44   16   54 1   
    45   16   55 1   
    46   17   18 1   
    47   18   19 1   
    48   18   56 1   
    49   18   57 1   
    50   19   20 1   
    51   19   58 1   
    52   19   59 1   
    53   20   21 1   
    54   21   22 1   
    55   21   60 1   
    56   21   61 1   
    57   22   23 1   
    58   22   62 1   
    59   22   63 1   
    60   23   24 1   
    61   24   25 1   
    62   24   64 1   
    63   24   65 1   
    64   25   26 1   
    65   25   66 1   
    66   25   67 1   
    67   26   68 1   
@<TRIPOS>SUBSTRUCTURE
     1 CXE         1 TEMP              0 ****  ****    0 ROOT
