@<TRIPOS>MOLECULE
CXF
   22    22     1     0     0
SMALL
bcc


@<TRIPOS>ATOM
      1 C1         -0.1260   -0.0490   -0.2670 c3        1 CXF      0.092700
      2 C2         -1.3190   -0.0620    0.7060 c3        1 CXF     -0.090400
      3 C3         -0.9530    0.6350    1.9990 c3        1 CXF     -0.075400
      4 C4          0.2540   -0.0050    2.6520 c3        1 CXF     -0.079400
      5 C5          1.4300   -0.0460    1.6990 c3        1 CXF     -0.075400
      6 C6          1.0710   -0.7460    0.4050 c3        1 CXF     -0.090400
      7 N8         -0.4560   -0.6380   -1.5460 n         1 CXF     -0.582900
      8 C7         -0.4080    0.0480   -2.7320 c         1 CXF      0.660900
      9 O9         -0.0790    1.2430   -2.8250 o         1 CXF     -0.608100
     10 H1          0.1590    1.0320   -0.4580 h1        1 CXF      0.089700
     11 H21        -2.1960    0.4580    0.2390 hc        1 CXF      0.043200
     12 H22        -1.6230   -1.1190    0.9200 hc        1 CXF      0.043200
     13 H31        -0.7380    1.7170    1.7920 hc        1 CXF      0.043700
     14 H32        -1.8260    0.5940    2.7010 hc        1 CXF      0.043700
     15 H41         0.5350    0.5720    3.5710 hc        1 CXF      0.040700
     16 H42        -0.0040   -1.0480    2.9740 hc        1 CXF      0.040700
     17 H51         1.7690    1.0000    1.4770 hc        1 CXF      0.043700
     18 H52         2.2880   -0.5820    2.1830 hc        1 CXF      0.043700
     19 H61         0.8190   -1.8180    0.6130 hc        1 CXF      0.043200
     20 H62         1.9560   -0.7300   -0.2840 hc        1 CXF      0.043200
     21 HN8        -0.7270   -1.5910   -1.5420 hn        1 CXF      0.306500
     22 H7         -0.6960   -0.5670   -3.6180 h5        1 CXF      0.023200
@<TRIPOS>BOND
     1    1    2 1   
     2    1    6 1   
     3    1    7 1   
     4    1   10 1   
     5    2    3 1   
     6    2   11 1   
     7    2   12 1   
     8    3    4 1   
     9    3   13 1   
    10    3   14 1   
    11    4    5 1   
    12    4   15 1   
    13    4   16 1   
    14    5    6 1   
    15    5   17 1   
    16    5   18 1   
    17    6   19 1   
    18    6   20 1   
    19    7    8 1   
    20    7   21 1   
    21    8    9 2   
    22    8   22 1   
@<TRIPOS>SUBSTRUCTURE
     1 CXF         1 TEMP              0 ****  ****    0 ROOT
