@<TRIPOS>MOLECULE
CXF
   23    23     1     0     0
SMALL
bcc


@<TRIPOS>ATOM
      1 C1          0.0530    0.0000   -0.0240 c3        1 CXF      0.126500
      2 C2          1.5860   -0.0180    0.0320 c3        1 CXF     -0.100400
      3 C3          2.0380    0.0570    1.4780 c3        1 CXF     -0.079400
      4 C4          1.4900    1.2880    2.1680 c3        1 CXF     -0.092400
      5 C5         -0.0190    1.3490    2.0670 c3        1 CXF     -0.079400
      6 C6         -0.4830    1.2820    0.6230 c3        1 CXF     -0.100400
      7 N8         -0.4290   -0.1460   -1.4520 n4        1 CXF     -0.702800
      8 C7         -1.8420   -0.6570   -1.5100 c         1 CXF      0.545900
      9 O9         -2.0390   -1.6900   -2.1180 o         1 CXF     -0.371100
     10 H1         -0.3420   -0.9000    0.5380 hx        1 CXF      0.109700
     11 H21         2.0020    0.8560   -0.5360 hc        1 CXF      0.064200
     12 H22         1.9850   -0.9600   -0.4310 hc        1 CXF      0.064200
     13 H31         1.7080   -0.8660    2.0250 hc        1 CXF      0.071700
     14 H32         3.1600    0.0780    1.5020 hc        1 CXF      0.071700
     15 H41         1.9390    2.2090    1.7110 hc        1 CXF      0.070200
     16 H42         1.7900    1.2720    3.2490 hc        1 CXF      0.070200
     17 H51        -0.4740    0.5060    2.6500 hc        1 CXF      0.071700
     18 H52        -0.3890    2.3080    2.5180 hc        1 CXF      0.071700
     19 H61        -1.6030    1.2990    0.5950 hc        1 CXF      0.064200
     20 H62        -0.1040    2.1810    0.0690 hc        1 CXF      0.064200
     21 HN8        -0.3820    0.7680   -1.9150 hn        1 CXF      0.460800
     22 H7         -2.5640   -0.0080   -0.9670 hx        1 CXF      0.136200
     23 H82         0.2010   -0.7900   -1.9490 hn        1 CXF      0.460800
@<TRIPOS>BOND
     1    1    2 1   
     2    1    6 1   
     3    1    7 1   
     4    1   10 1   
     5    2    3 1   
     6    2   11 1   
     7    2   12 1   
     8    3    4 1   
     9    3   13 1   
    10    3   14 1   
    11    4    5 1   
    12    4   15 1   
    13    4   16 1   
    14    5    6 1   
    15    5   17 1   
    16    5   18 1   
    17    6   19 1   
    18    6   20 1   
    19    7    8 1   
    20    7   21 1   
    21    7   23 1   
    22    8    9 2   
    23    8   22 1   
@<TRIPOS>SUBSTRUCTURE
     1 CXF         1 TEMP              0 ****  ****    0 ROOT
