@<TRIPOS>MOLECULE
CXF
   23    23     1     0     0
SMALL
bcc


@<TRIPOS>ATOM
      1 C1          0.0510   -0.0240   -0.0000 c3        1 CXF      0.126500
      2 C2          1.5820   -0.0720    0.0820 c3        1 CXF     -0.100400
      3 C3          2.0140    0.0870    1.5280 c3        1 CXF     -0.079400
      4 C4          1.4840    1.3720    2.1260 c3        1 CXF     -0.092400
      5 C5         -0.0210    1.4600    1.9960 c3        1 CXF     -0.079400
      6 C6         -0.4650    1.3090    0.5530 c3        1 CXF     -0.100400
      7 N8         -0.4130   -0.2530   -1.4230 n4        1 CXF     -0.702800
      8 C7         -1.8360   -0.7340   -1.4720 c         1 CXF      0.545900
      9 O9         -2.0490   -1.8010   -2.0120 o         1 CXF     -0.371100
     10 H1         -0.3730   -0.8760    0.6120 hx        1 CXF      0.109700
     11 H21         1.9660   -1.0510   -0.3120 hc        1 CXF      0.064200
     12 H22         2.0270    0.7530   -0.5340 hc        1 CXF      0.064200
     13 H31         1.6540   -0.7900    2.1280 hc        1 CXF      0.071700
     14 H32         3.1360    0.0850    1.5680 hc        1 CXF      0.071700
     15 H41         1.9610    2.2520    1.6180 hc        1 CXF      0.070200
     16 H42         1.7660    1.4210    3.2120 hc        1 CXF      0.070200
     17 H51        -0.5050    0.6670    2.6250 hc        1 CXF      0.071700
     18 H52        -0.3760    2.4550    2.3770 hc        1 CXF      0.071700
     19 H61        -1.5840    1.3490    0.5040 hc        1 CXF      0.064200
     20 H62        -0.0570    2.1610   -0.0530 hc        1 CXF      0.064200
     21 HN8        -0.3360    0.6280   -1.9450 hn        1 CXF      0.460800
     22 H7         -2.5510   -0.0330   -0.9870 hx        1 CXF      0.136200
     23 H82         0.2090   -0.9430   -1.8670 hn        1 CXF      0.460800
@<TRIPOS>BOND
     1    1    2 1   
     2    1    6 1   
     3    1    7 1   
     4    1   10 1   
     5    2    3 1   
     6    2   11 1   
     7    2   12 1   
     8    3    4 1   
     9    3   13 1   
    10    3   14 1   
    11    4    5 1   
    12    4   15 1   
    13    4   16 1   
    14    5    6 1   
    15    5   17 1   
    16    5   18 1   
    17    6   19 1   
    18    6   20 1   
    19    7    8 1   
    20    7   21 1   
    21    7   23 1   
    22    8    9 2   
    23    8   22 1   
@<TRIPOS>SUBSTRUCTURE
     1 CXF         1 TEMP              0 ****  ****    0 ROOT
