@<TRIPOS>MOLECULE
CXF
   23    23     1     0     0
SMALL
bcc


@<TRIPOS>ATOM
      1 C1          0.0430   -0.0270    0.0080 c3        1 CXF      0.126500
      2 C2          1.5730   -0.1040    0.0930 c3        1 CXF     -0.100400
      3 C3          2.0060    0.0750    1.5360 c3        1 CXF     -0.079400
      4 C4          1.5010    1.3820    2.1090 c3        1 CXF     -0.092400
      5 C5         -0.0020    1.4970    1.9750 c3        1 CXF     -0.079400
      6 C6         -0.4470    1.3260    0.5340 c3        1 CXF     -0.100400
      7 N8         -0.4240   -0.2750   -1.4110 ny        1 CXF     -0.702800
      8 C7         -1.8560   -0.7300   -1.4530 c         1 CXF      0.545900
      9 O9         -2.0880   -1.8020   -1.9730 o         1 CXF     -0.371100
     10 H1         -0.3990   -0.8590    0.6360 hx        1 CXF      0.109700
     11 H21         1.9370   -1.0980   -0.2810 hc        1 CXF      0.064200
     12 H22         2.0350    0.7000   -0.5380 hc        1 CXF      0.064200
     13 H31         1.6290   -0.7830    2.1530 hc        1 CXF      0.071700
     14 H32         3.1270    0.0510    1.5790 hc        1 CXF      0.071700
     15 H41         1.9950    2.2420    1.5840 hc        1 CXF      0.070200
     16 H42         1.7830    1.4460    3.1930 hc        1 CXF      0.070200
     17 H51        -0.5020    0.7260    2.6190 hc        1 CXF      0.071700
     18 H52        -0.3380    2.5060    2.3360 hc        1 CXF      0.071700
     19 H61        -1.5650    1.3870    0.4830 hc        1 CXF      0.064200
     20 H62        -0.0220    2.1580   -0.0870 hc        1 CXF      0.064200
     21 HN8         0.1860   -0.9850   -1.8400 hn        1 CXF      0.460800
     22 H7         -2.5580   -0.0060   -0.9810 hx        1 CXF      0.136200
     23 H82        -0.3290    0.5940   -1.9500 hn        1 CXF      0.460800
@<TRIPOS>BOND
     1    1    2 1   
     2    1    6 1   
     3    1    7 1   
     4    1   10 1   
     5    2    3 1   
     6    2   11 1   
     7    2   12 1   
     8    3    4 1   
     9    3   13 1   
    10    3   14 1   
    11    4    5 1   
    12    4   15 1   
    13    4   16 1   
    14    5    6 1   
    15    5   17 1   
    16    5   18 1   
    17    6   19 1   
    18    6   20 1   
    19    7    8 1   
    20    7   21 1   
    21    7   23 1   
    22    8    9 2   
    23    8   22 1   
@<TRIPOS>SUBSTRUCTURE
     1 CXF         1 TEMP              0 ****  ****    0 ROOT
