@<TRIPOS>MOLECULE
CXF
   22    22     1     0     0
SMALL
bcc


@<TRIPOS>ATOM
      1 C1         -0.4040   -0.3420   -0.5440 c3        1 CXF      0.092700
      2 C2          1.1120   -0.3420   -0.5440 c3        1 CXF     -0.090400
      3 C3          1.6900   -0.3420    0.8550 c3        1 CXF     -0.075400
      4 C4          1.1110    0.7590    1.7220 c3        1 CXF     -0.079400
      5 C5         -0.4050    0.7600    1.7220 c3        1 CXF     -0.075400
      6 C6         -0.9840    0.7600    0.3240 c3        1 CXF     -0.090400
      7 N8         -0.8680   -0.1650   -1.8890 n         1 CXF     -0.582900
      8 C7         -1.6530   -1.1710   -2.5080 c         1 CXF      0.660900
      9 O9         -1.9330   -2.1860   -1.8970 o         1 CXF     -0.608100
     10 H1         -0.7200   -1.2040   -0.2120 h1        1 CXF      0.089700
     11 H21         1.4280    0.4520   -1.0150 hc        1 CXF      0.043200
     12 H22         1.4280   -1.1370   -1.0150 hc        1 CXF      0.043200
     13 H31         1.5040   -1.2040    1.2730 hc        1 CXF      0.043700
     14 H32         2.6570   -0.2220    0.7960 hc        1 CXF      0.043700
     15 H41         1.4260    1.6210    1.3900 hc        1 CXF      0.040700
     16 H42         1.4260    0.6390    2.6380 hc        1 CXF      0.040700
     17 H51        -0.7210   -0.0350    2.1940 hc        1 CXF      0.043700
     18 H52        -0.7210    1.5540    2.1940 hc        1 CXF      0.043700
     19 H61        -1.9510    0.6400    0.3830 hc        1 CXF      0.043200
     20 H62        -0.7970    1.6220   -0.0940 hc        1 CXF      0.043200
     21 HN8        -0.6580    0.5960   -2.3470 hn        1 CXF      0.306500
     22 H7         -1.9680   -1.0500   -3.4240 h5        1 CXF      0.023200
@<TRIPOS>BOND
     1    1    2 1   
     2    1    6 1   
     3    1    7 1   
     4    1   10 1   
     5    2    3 1   
     6    2   11 1   
     7    2   12 1   
     8    3    4 1   
     9    3   13 1   
    10    3   14 1   
    11    4    5 1   
    12    4   15 1   
    13    4   16 1   
    14    5    6 1   
    15    5   17 1   
    16    5   18 1   
    17    6   19 1   
    18    6   20 1   
    19    7    8 1   
    20    7   21 1   
    21    8    9 2   
    22    8   22 1   
@<TRIPOS>SUBSTRUCTURE
     1 CXF         1 TEMP              0 ****  ****    0 ROOT
