@<TRIPOS>MOLECULE
CXL
   19    19     1     0     0
SMALL
bcc


@<TRIPOS>ATOM
      1 C1          0.0490   -0.0830   -0.0040 c3        1 CXL      0.142100
      2 C2          1.5750   -0.0550    0.0180 c3        1 CXL     -0.093400
      3 C3          2.0830    0.0400    1.4400 c3        1 CXL     -0.074900
      4 C4          1.5050    1.2430    2.1580 c3        1 CXL     -0.078400
      5 C5         -0.0100    1.2240    2.1300 c3        1 CXL     -0.074900
      6 C6         -0.5340    1.1320    0.7140 c3        1 CXL     -0.093400
      7 O          -0.3340   -0.0990   -1.3750 oh        1 CXL     -0.600800
      8 H1         -0.3220   -1.0250    0.4910 h1        1 CXL      0.030700
      9 H21         1.9320    0.8220   -0.5820 hc        1 CXL      0.050200
     10 H22         1.9660   -0.9820   -0.4730 hc        1 CXL      0.050200
     11 H31         1.8120   -0.8940    1.9990 hc        1 CXL      0.041200
     12 H32         3.2020    0.1130    1.4290 hc        1 CXL      0.041200
     13 H41         1.8750    2.1820    1.6690 hc        1 CXL      0.041700
     14 H42         1.8600    1.2530    3.2210 hc        1 CXL      0.041700
     15 H51        -0.4070    2.1540    2.6150 hc        1 CXL      0.041200
     16 H52        -0.3840    0.3490    2.7250 hc        1 CXL      0.041200
     17 H61        -0.2630    2.0580    0.1420 hc        1 CXL      0.050200
     18 H62        -1.6530    1.0580    0.7250 hc        1 CXL      0.050200
     19 HO         -1.2960   -0.0390   -1.3950 ho        1 CXL      0.398000
@<TRIPOS>BOND
     1    1    2 1   
     2    1    6 1   
     3    1    7 1   
     4    1    8 1   
     5    2    3 1   
     6    2    9 1   
     7    2   10 1   
     8    3    4 1   
     9    3   11 1   
    10    3   12 1   
    11    4    5 1   
    12    4   13 1   
    13    4   14 1   
    14    5    6 1   
    15    5   15 1   
    16    5   16 1   
    17    6   17 1   
    18    6   18 1   
    19    7   19 1   
@<TRIPOS>SUBSTRUCTURE
     1 CXL         1 TEMP              0 ****  ****    0 ROOT
