@<TRIPOS>MOLECULE
CXL
   19    19     1     0     0
SMALL
bcc


@<TRIPOS>ATOM
      1 C1         -0.0880   -0.0030    0.0480 c3        1 CXL      0.142100
      2 C2          1.4370   -0.0700    0.0080 c3        1 CXL     -0.093400
      3 C3          2.0150   -0.0050    1.4040 c3        1 CXL     -0.074900
      4 C4          1.5370    1.2290    2.1430 c3        1 CXL     -0.078400
      5 C5          0.0240    1.2980    2.1770 c3        1 CXL     -0.074900
      6 C6         -0.5650    1.2450    0.7840 c3        1 CXL     -0.093400
      7 O          -0.6310    0.0710   -1.2660 oh        1 CXL     -0.600800
      8 H1         -0.4910   -0.9240    0.5590 h1        1 CXL      0.030700
      9 H21         1.8230    0.7830   -0.6090 hc        1 CXL      0.050200
     10 H22         1.7560   -1.0210   -0.4920 hc        1 CXL      0.050200
     11 H31         3.1350    0.0030    1.3440 hc        1 CXL      0.041200
     12 H32         1.7160   -0.9220    1.9770 hc        1 CXL      0.041200
     13 H41         1.9410    2.1460    1.6380 hc        1 CXL      0.041700
     14 H42         1.9370    1.2170    3.1900 hc        1 CXL      0.041700
     15 H51        -0.3750    0.4450    2.7860 hc        1 CXL      0.041200
     16 H52        -0.2970    2.2480    2.6790 hc        1 CXL      0.041200
     17 H61        -0.2620    2.1520    0.1990 hc        1 CXL      0.050200
     18 H62        -1.6840    1.2360    0.8360 hc        1 CXL      0.050200
     19 HO         -0.2700   -0.6750   -1.7580 ho        1 CXL      0.398000
@<TRIPOS>BOND
     1    1    2 1   
     2    1    6 1   
     3    1    7 1   
     4    1    8 1   
     5    2    3 1   
     6    2    9 1   
     7    2   10 1   
     8    3    4 1   
     9    3   11 1   
    10    3   12 1   
    11    4    5 1   
    12    4   13 1   
    13    4   14 1   
    14    5    6 1   
    15    5   15 1   
    16    5   16 1   
    17    6   17 1   
    18    6   18 1   
    19    7   19 1   
@<TRIPOS>SUBSTRUCTURE
     1 CXL         1 TEMP              0 ****  ****    0 ROOT
