@<TRIPOS>MOLECULE
CXL
   19    19     1     0     0
SMALL
bcc


@<TRIPOS>ATOM
      1 C1         -0.6610   -0.4970   -0.9680 c3        1 CXL      0.142100
      2 C2          0.8550   -0.4970   -0.9680 c3        1 CXL     -0.093400
      3 C3          1.4330   -0.4970    0.4300 c3        1 CXL     -0.074900
      4 C4          0.8540    0.6050    1.2970 c3        1 CXL     -0.078400
      5 C5         -0.6620    0.6050    1.2970 c3        1 CXL     -0.074900
      6 C6         -1.2400    0.6050   -0.1000 c3        1 CXL     -0.093400
      7 O          -1.1200   -0.3210   -2.3020 oh        1 CXL     -0.600800
      8 H1         -0.9770   -1.3590   -0.6360 h1        1 CXL      0.030700
      9 H21         1.1710   -1.2910   -1.4400 hc        1 CXL      0.050200
     10 H22         1.1710    0.2970   -1.4400 hc        1 CXL      0.050200
     11 H31         1.2470   -1.3590    0.8490 hc        1 CXL      0.041200
     12 H32         2.4000   -0.3760    0.3720 hc        1 CXL      0.041200
     13 H41         1.1690    0.4840    2.2130 hc        1 CXL      0.041700
     14 H42         1.1700    1.4670    0.9650 hc        1 CXL      0.041700
     15 H51        -0.9780   -0.1890    1.7690 hc        1 CXL      0.041200
     16 H52        -0.9770    1.3990    1.7690 hc        1 CXL      0.041200
     17 H61        -1.0540    1.4670   -0.5190 hc        1 CXL      0.050200
     18 H62        -2.2070    0.4850   -0.0420 hc        1 CXL      0.050200
     19 HO         -1.5950   -1.0290   -2.5480 ho        1 CXL      0.398000
@<TRIPOS>BOND
     1    1    2 1   
     2    1    6 1   
     3    1    7 1   
     4    1    8 1   
     5    2    3 1   
     6    2    9 1   
     7    2   10 1   
     8    3    4 1   
     9    3   11 1   
    10    3   12 1   
    11    4    5 1   
    12    4   13 1   
    13    4   14 1   
    14    5    6 1   
    15    5   15 1   
    16    5   16 1   
    17    6   17 1   
    18    6   18 1   
    19    7   19 1   
@<TRIPOS>SUBSTRUCTURE
     1 CXL         1 TEMP              0 ****  ****    0 ROOT
