@<TRIPOS>MOLECULE
CXL
   19    19     1     0     0
SMALL
bcc


@<TRIPOS>ATOM
      1 C1         -0.0200   -0.3350    0.9770 c3        1 CXL      0.142100
      2 C2         -1.2660    0.1730    0.2580 c3        1 CXL     -0.093400
      3 C3         -1.2310   -0.2160   -1.2040 c3        1 CXL     -0.074900
      4 C4          0.0300    0.2800   -1.8810 c3        1 CXL     -0.078400
      5 C5          1.2700   -0.2140   -1.1640 c3        1 CXL     -0.074900
      6 C6          1.2510    0.1700    0.2990 c3        1 CXL     -0.093400
      7 O          -0.1070    0.1380    2.3170 oh        1 CXL     -0.600800
      8 H1         -0.0180   -1.4620    0.9860 h1        1 CXL      0.030700
      9 H21        -2.1750   -0.2560    0.7520 hc        1 CXL      0.050200
     10 H22        -1.3190    1.2880    0.3620 hc        1 CXL      0.050200
     11 H31        -1.2900   -1.3330   -1.2970 hc        1 CXL      0.041200
     12 H32        -2.1280    0.2120   -1.7230 hc        1 CXL      0.041200
     13 H41         0.0480   -0.0700   -2.9460 hc        1 CXL      0.041700
     14 H42         0.0300    1.4020   -1.8940 hc        1 CXL      0.041700
     15 H51         1.3350   -1.3310   -1.2570 hc        1 CXL      0.041200
     16 H52         2.1830    0.2170   -1.6510 hc        1 CXL      0.041200
     17 H61         1.3020    1.2850    0.4050 hc        1 CXL      0.050200
     18 H62         2.1470   -0.2600    0.8180 hc        1 CXL      0.050200
     19 HO          0.7140   -0.1150    2.7540 ho        1 CXL      0.398000
@<TRIPOS>BOND
     1    1    2 1   
     2    1    6 1   
     3    1    7 1   
     4    1    8 1   
     5    2    3 1   
     6    2    9 1   
     7    2   10 1   
     8    3    4 1   
     9    3   11 1   
    10    3   12 1   
    11    4    5 1   
    12    4   13 1   
    13    4   14 1   
    14    5    6 1   
    15    5   15 1   
    16    5   16 1   
    17    6   17 1   
    18    6   18 1   
    19    7   19 1   
@<TRIPOS>SUBSTRUCTURE
     1 CXL         1 TEMP              0 ****  ****    0 ROOT
