@<TRIPOS>MOLECULE
CXM
   21    20     1     0     0
SMALL
bcc


@<TRIPOS>ATOM
      1 N           0.6840    0.7870   -0.4700 n         1 CXM     -0.581900
      2 CA         -0.4950   -0.0410   -0.5420 c3        1 CXM     -0.010300
      3 CB         -1.1680   -0.2380    0.8370 c3        1 CXM     -0.068400
      4 CG         -0.4580   -1.2710    1.6730 c3        1 CXM      0.030700
      5 SD         -0.0510   -0.7390    3.3370 ss        1 CXM     -0.472200
      6 CE          1.4960    0.0810    3.1190 c3        1 CXM     -0.014000
      7 C          -1.6010    0.4860   -1.5120 c         1 CXM      0.896600
      8 O          -2.5810   -0.2890   -1.7440 o         1 CXM     -0.870300
      9 CN          1.9900    0.1980   -0.4580 c         1 CXM      0.979600
     10 ON1         2.1710   -0.9720    0.0230 o         1 CXM     -0.887800
     11 ON2         2.9630    0.9130   -0.8660 o         1 CXM     -0.887800
     12 OXT        -1.5100    1.6340   -2.0380 o         1 CXM     -0.870300
     13 H           0.6160    1.5920   -1.0570 hn        1 CXM      0.277500
     14 HA         -0.2140   -1.0700   -0.9190 h1        1 CXM      0.033700
     15 HB2        -2.2240   -0.5710    0.6490 hc        1 CXM      0.041200
     16 HB3        -1.2140    0.7400    1.3810 hc        1 CXM      0.041200
     17 HG2         0.4980   -1.5840    1.1670 h1        1 CXM      0.081700
     18 HG3        -1.1010   -2.1690    1.8340 h1        1 CXM      0.081700
     19 HE1         1.3690    1.1730    3.2730 h1        1 CXM      0.066367
     20 HE2         2.2130   -0.3180    3.8690 h1        1 CXM      0.066367
     21 HE3         1.8960   -0.0930    2.0830 h1        1 CXM      0.066367
@<TRIPOS>BOND
     1    1    2 1   
     2    1    9 1   
     3    1   13 1   
     4    2    3 1   
     5    2    7 1   
     6    2   14 1   
     7    3    4 1   
     8    3   15 1   
     9    3   16 1   
    10    4    5 1   
    11    4   17 1   
    12    4   18 1   
    13    5    6 1   
    14    6   19 1   
    15    6   20 1   
    16    6   21 1   
    17    7    8 1   
    18    7   12 1   
    19    9   10 1   
    20    9   11 1   
@<TRIPOS>SUBSTRUCTURE
     1 CXM         1 TEMP              0 ****  ****    0 ROOT
