@<TRIPOS>MOLECULE
CXN
   47    50     1     0     0
SMALL
bcc


@<TRIPOS>ATOM
      1 C1         -0.2620    0.2320   -0.1530 c         1 CXN      0.667500
      2 O1         -0.9900    0.1810   -1.1310 o         1 CXN     -0.534500
      3 C2          1.3230    0.2250   -0.0740 cy        1 CXN     -0.069500
      4 C3          1.0930    0.3970    1.4730 cy        1 CXN      0.144800
      5 N7         -0.3630    0.2250    1.2580 n         1 CXN     -0.283800
      6 C6         -1.1670    1.1450    2.0330 c3        1 CXN     -0.129300
      7 C8         -1.6260    0.4800    3.4310 c         1 CXN      0.958600
      8 O81        -2.8170    0.7340    3.7150 o         1 CXN     -0.772300
      9 O82        -0.7710   -0.1690    4.0680 o         1 CXN     -0.772300
     10 C5         -0.3910    2.4620    2.3030 c3        1 CXN      0.114100
     11 C51        -0.5440    2.9340    3.7240 c3        1 CXN     -0.101600
     12 C52        -0.7620    3.5420    1.3210 c3        1 CXN     -0.101600
     13 S4          1.4120    2.0620    2.0530 ss        1 CXN     -0.408200
     14 N2          1.9510    1.3760   -0.7480 n4        1 CXN     -0.665800
     15 C21         3.3450    1.1350   -1.2330 c         1 CXN      0.604700
     16 O21         3.9720    0.2020   -0.7350 o         1 CXN     -0.456100
     17 C22         3.8370    2.0430   -2.2390 cc        1 CXN     -0.458200
     18 N25         4.0330    3.6070   -3.8960 nd        1 CXN     -0.303300
     19 O24         5.2340    3.1060   -3.6520 os        1 CXN     -0.091100
     20 C23         5.1750    2.1380   -2.6450 cd        1 CXN      0.421000
     21 C26         3.1320    3.0220   -3.0830 cc        1 CXN      0.416800
     22 C27         6.4220    1.4870   -2.2520 c3        1 CXN     -0.180400
     23 C28         1.7030    3.3130   -3.0900 ca        1 CXN     -0.200500
     24 C29         1.1260    4.1490   -2.1180 ca        1 CXN      0.006400
     25 CL          2.0800    4.8280   -0.8880 cl        1 CXN     -0.066400
     26 C30        -0.2420    4.4340   -2.1590 ca        1 CXN     -0.121000
     27 C31        -1.0340    3.8930   -3.1720 ca        1 CXN     -0.083000
     28 C32        -0.4640    3.0720   -4.1450 ca        1 CXN     -0.116000
     29 C33         0.9000    2.7860   -4.1090 ca        1 CXN     -0.086000
     30 H2          1.8110   -0.7390   -0.3600 hx        1 CXN      0.144700
     31 H3          1.5340   -0.3840    2.1330 h2        1 CXN      0.166700
     32 H6         -2.1150    1.3730    1.4700 h1        1 CXN      0.100700
     33 H511       -1.6360    3.0110    3.9710 hc        1 CXN      0.057700
     34 H512       -0.0890    2.1960    4.4340 hc        1 CXN      0.057700
     35 H513       -0.0610    3.9310    3.8630 hc        1 CXN      0.057700
     36 H521       -1.8300    3.8380    1.4840 hc        1 CXN      0.057700
     37 H522       -0.6540    3.1880    0.2660 hc        1 CXN      0.057700
     38 H523       -0.1230    4.4480    1.4600 hc        1 CXN      0.057700
     39 HN2         1.9610    2.1750   -0.0280 hn        1 CXN      0.481300
     40 H271        7.0660    2.2110   -1.6870 hc        1 CXN      0.099033
     41 H272        6.2040    0.6030   -1.5990 hc        1 CXN      0.099033
     42 H273        6.9890    1.1510   -3.1580 hc        1 CXN      0.099033
     43 H30        -0.6930    5.0870   -1.3930 ha        1 CXN      0.169000
     44 H31        -2.1120    4.1190   -3.2010 ha        1 CXN      0.162000
     45 H32        -1.0910    2.6490   -4.9470 ha        1 CXN      0.160000
     46 H33         1.3520    2.1520   -4.8880 ha        1 CXN      0.156000
     47 H22         1.3600    1.6560   -1.5430 hn        1 CXN      0.481300
@<TRIPOS>BOND
     1    1    2 2   
     2    1    3 1   
     3    1    5 1   
     4    3    4 1   
     5    3   14 1   
     6    3   30 1   
     7    4    5 1   
     8    4   13 1   
     9    4   31 1   
    10    5    6 1   
    11    6    7 1   
    12    6   10 1   
    13    6   32 1   
    14    7    8 1   
    15    7    9 1   
    16   10   11 1   
    17   10   12 1   
    18   10   13 1   
    19   11   33 1   
    20   11   34 1   
    21   11   35 1   
    22   12   36 1   
    23   12   37 1   
    24   12   38 1   
    25   14   15 1   
    26   14   39 1   
    27   14   47 1   
    28   15   16 2   
    29   15   17 1   
    30   17   20 2   
    31   17   21 1   
    32   18   19 1   
    33   18   21 2   
    34   19   20 1   
    35   20   22 1   
    36   21   23 1   
    37   22   40 1   
    38   22   41 1   
    39   22   42 1   
    40   23   24 ar  
    41   23   29 ar  
    42   24   25 1   
    43   24   26 ar  
    44   26   27 ar  
    45   26   43 1   
    46   27   28 ar  
    47   27   44 1   
    48   28   29 ar  
    49   28   45 1   
    50   29   46 1   
@<TRIPOS>SUBSTRUCTURE
     1 CXN         1 TEMP              0 ****  ****    0 ROOT
