@<TRIPOS>MOLECULE
CXN
   46    49     1     0     0
SMALL
bcc


@<TRIPOS>ATOM
      1 C1         -0.1160    1.8800   -1.9430 c         1 CXN      0.654500
      2 O1         -0.9470    2.6900   -1.5530 o         1 CXN     -0.577500
      3 C2          1.2880    1.4140   -1.4030 cy        1 CXN     -0.016300
      4 C3          1.2380    0.3950   -2.6060 cy        1 CXN      0.129800
      5 N7          0.0140    1.0570   -3.1000 n         1 CXN     -0.337800
      6 C6         -1.0120    0.1560   -3.5820 c3        1 CXN     -0.079300
      7 C8         -1.1160    0.1380   -5.1660 c         1 CXN      0.942600
      8 O81        -2.2980    0.1360   -5.5990 o         1 CXN     -0.810300
      9 O82        -0.0680    0.1010   -5.8540 o         1 CXN     -0.810300
     10 C5         -0.7840   -1.2840   -3.0360 c3        1 CXN      0.095100
     11 C51        -0.7590   -2.3170   -4.1350 c3        1 CXN     -0.089600
     12 C52        -1.8170   -1.6400   -1.9950 c3        1 CXN     -0.089600
     13 S4          0.8650   -1.3110   -2.2170 ss        1 CXN     -0.434200
     14 N2          1.3120    0.8810   -0.0870 n         1 CXN     -0.525900
     15 C21         2.1930    1.3300    0.8720 c         1 CXN      0.707700
     16 O21         3.0000    2.2610    0.6470 o         1 CXN     -0.626100
     17 C22         2.1490    0.6870    2.1960 cc        1 CXN     -0.369200
     18 N25         1.4890   -0.3990    4.1000 nd        1 CXN     -0.349300
     19 O24         2.7480   -0.0360    4.2500 os        1 CXN     -0.124100
     20 C23         3.2010    0.6460    3.1010 cd        1 CXN      0.334000
     21 C26         1.0510   -0.0040    2.8840 cc        1 CXN      0.404800
     22 C27         4.5810    1.1280    3.1010 c3        1 CXN     -0.155400
     23 C28        -0.2990   -0.2110    2.3770 ca        1 CXN     -0.149500
     24 C29        -0.9010   -1.4800    2.3680 ca        1 CXN      0.048400
     25 CL         -0.0740   -2.8530    2.9320 cl        1 CXN     -0.081400
     26 C30        -2.2000   -1.6410    1.8730 ca        1 CXN     -0.135000
     27 C31        -2.9010   -0.5390    1.3880 ca        1 CXN     -0.105000
     28 C32        -2.3140    0.7270    1.4020 ca        1 CXN     -0.125000
     29 C33        -1.0240    0.8900    1.8970 ca        1 CXN     -0.089000
     30 H2          2.0780    2.2010   -1.5310 h1        1 CXN      0.115700
     31 H3          2.0910    0.4660   -3.3160 h2        1 CXN      0.120700
     32 H6         -2.0110    0.5330   -3.2160 h1        1 CXN      0.076700
     33 H511       -0.6170   -3.3380   -3.7070 hc        1 CXN      0.046700
     34 H512       -1.7240   -2.2840   -4.7010 hc        1 CXN      0.046700
     35 H513        0.0690   -2.0960   -4.8560 hc        1 CXN      0.046700
     36 H521       -1.6040   -2.6460   -1.5580 hc        1 CXN      0.046700
     37 H522       -1.8340   -0.8890   -1.1680 hc        1 CXN      0.046700
     38 H523       -2.8300   -1.6680   -2.4690 hc        1 CXN      0.046700
     39 HN2         0.7900    0.0420    0.0690 hn        1 CXN      0.341500
     40 H271        4.8060    1.6680    4.0540 hc        1 CXN      0.077033
     41 H272        5.2880    0.2660    3.0050 hc        1 CXN      0.077033
     42 H273        4.7250    1.8250    2.2340 hc        1 CXN      0.077033
     43 H30        -2.6630   -2.6390    1.8570 ha        1 CXN      0.147000
     44 H31        -3.9170   -0.6710    0.9850 ha        1 CXN      0.141000
     45 H32        -2.8600    1.5960    1.0030 ha        1 CXN      0.154000
     46 H33        -0.5580    1.8890    1.9000 ha        1 CXN      0.155000
@<TRIPOS>BOND
     1    1    2 2   
     2    1    3 1   
     3    1    5 1   
     4    3    4 1   
     5    3   14 1   
     6    3   30 1   
     7    4    5 1   
     8    4   13 1   
     9    4   31 1   
    10    5    6 1   
    11    6    7 1   
    12    6   10 1   
    13    6   32 1   
    14    7    8 1   
    15    7    9 1   
    16   10   11 1   
    17   10   12 1   
    18   10   13 1   
    19   11   33 1   
    20   11   34 1   
    21   11   35 1   
    22   12   36 1   
    23   12   37 1   
    24   12   38 1   
    25   14   15 1   
    26   14   39 1   
    27   15   16 2   
    28   15   17 1   
    29   17   20 2   
    30   17   21 1   
    31   18   19 1   
    32   18   21 2   
    33   19   20 1   
    34   20   22 1   
    35   21   23 1   
    36   22   40 1   
    37   22   41 1   
    38   22   42 1   
    39   23   24 ar  
    40   23   29 ar  
    41   24   25 1   
    42   24   26 ar  
    43   26   27 ar  
    44   26   43 1   
    45   27   28 ar  
    46   27   44 1   
    47   28   29 ar  
    48   28   45 1   
    49   29   46 1   
@<TRIPOS>SUBSTRUCTURE
     1 CXN         1 TEMP              0 ****  ****    0 ROOT
