@<TRIPOS>MOLECULE
CXN
   46    44     1     0     0
SMALL
bcc


@<TRIPOS>ATOM
      1 C1         -0.9420    0.8980   -0.4660 c1        1 CXN      0.259000
      2 O1         -0.1190    1.5240   -1.2010 o         1 CXN     -0.308000
      3 C2         -0.8860   -0.2990    0.3450 c2        1 CXN     -0.047000
      4 C3         -2.4270   -0.1980    0.4770 c3        1 CXN     -0.127000
      5 N7         -2.4550    1.0120   -0.1810 n3        1 CXN     -0.191000
      6 C6         -2.3040    2.2440    1.0610 c3        1 CXN     -0.110000
      7 C8         -3.1640    3.1310    0.8750 c2        1 CXN      0.363000
      8 O81        -4.2950    2.8180    0.4460 o         1 CXN     -0.543000
      9 O82        -2.9400    4.3270    1.2570 o         1 CXN     -0.543000
     10 C5         -2.5040    1.3920    2.4420 c3        1 CXN     -0.093000
     11 C51        -1.1060    1.2630    3.2360 c3        1 CXN     -0.208000
     12 C52        -3.6490    2.1400    3.4020 c3        1 CXN     -0.208000
     13 S4         -2.9930    0.0520    2.0260 ss        1 CXN     -0.052000
     14 N2         -0.8850   -0.2990    0.3450 n         1 CXN     -0.351000
     15 C21         0.8330   -0.6850    0.4290 c2        1 CXN      0.381000
     16 O21         1.6010    0.0700    1.0230 o         1 CXN     -0.355000
     17 C22         1.5800   -2.2030   -0.6810 c2        1 CXN     -0.201000
     18 N25         2.7810   -3.3210   -2.2190 n2        1 CXN     -0.010000
     19 O24         2.3630   -4.2560   -1.2370 os        1 CXN     -0.063000
     20 C23         1.6320   -3.5900   -0.2990 c1        1 CXN      0.009000
     21 C26         2.2920   -2.0680   -1.8630 c2        1 CXN     -0.022000
     22 C27         1.0810   -4.1780    0.9480 c2        1 CXN     -0.171000
     23 C28         2.5450   -0.9770   -2.4610 c1        1 CXN     -0.025000
     24 C29         3.7070   -0.3160   -2.1810 c1        1 CXN     -0.028000
     25 CL          4.7080   -0.8470   -0.8760 cl        1 CXN     -0.011000
     26 C30         4.1370    0.6940   -3.0030 c1        1 CXN     -0.141000
     27 C31         3.3990    1.0410   -4.1100 c1        1 CXN     -0.121500
     28 C32         2.2390    0.3820   -4.3890 c1        1 CXN     -0.121500
     29 C33         1.8080   -0.6260   -3.5690 c1        1 CXN     -0.086000
     30 H2         -0.3540   -0.2120    1.2310 h4        1 CXN      0.262000
     31 H3         -2.8820   -0.8770    0.0110 h2        1 CXN      0.160000
     32 H6         -1.4600    2.7890    1.0880 h1        1 CXN      0.123000
     33 H511       -1.2050    1.6780    4.1780 hc        1 CXN      0.087000
     34 H512       -0.8700    0.3310    3.3200 hc        1 CXN      0.087000
     35 H513       -0.3740    1.7570    2.7210 hc        1 CXN      0.087000
     36 H521       -3.4280    3.0820    3.4980 hc        1 CXN      0.087000
     37 H522       -3.6610    1.7230    4.2710 hc        1 CXN      0.087000
     38 H523       -4.5780    2.0480    2.9650 hc        1 CXN      0.087000
     39 HN2        -1.5150   -0.9290   -0.1250 hn        1 CXN      0.125000
     40 H271        1.4260   -5.1450    1.0540 ha        1 CXN      0.111000
     41 H272        1.3660   -3.6470    1.7130 ha        1 CXN      0.111000
     42 H273        0.1220   -4.1840    0.9000 ha        1 CXN      0.111000
     43 H30         4.9860    1.1740   -2.7980 ha        1 CXN      0.140000
     44 H31         3.6850    1.7610   -4.6710 ha        1 CXN      0.139000
     45 H32         1.7250    0.6230   -5.1580 ha        1 CXN      0.139000
     46 H33         0.9810   -1.0950   -3.7720 ha        1 CXN      0.180000
@<TRIPOS>BOND
     1    1    2 1   
     2    1    5 1   
     3    3    4 1   
     4    3   14 1   
     5    3   30 1   
     6    4    5 1   
     7    4   13 1   
     8    4   31 1   
     9    5    6 1   
    10    6    7 1   
    11    6   10 1   
    12    6   32 1   
    13    7    8 1   
    14    7    9 1   
    15   10   11 1   
    16   10   12 1   
    17   10   13 1   
    18   11   33 1   
    19   11   34 1   
    20   11   35 1   
    21   12   36 1   
    22   12   37 1   
    23   12   38 1   
    24   14   15 1   
    25   14   39 1   
    26   15   16 1   
    27   15   17 1   
    28   17   20 1   
    29   17   21 1   
    30   18   19 1   
    31   18   21 1   
    32   19   20 1   
    33   21   23 1   
    34   22   40 1   
    35   22   41 1   
    36   22   42 1   
    37   23   29 1   
    38   24   25 1   
    39   24   26 1   
    40   26   43 1   
    41   27   28 1   
    42   27   44 1   
    43   28   45 1   
    44   29   46 1   
@<TRIPOS>SUBSTRUCTURE
     1 CXN         1 TEMP              0 ****  ****    0 ROOT
