@<TRIPOS>MOLECULE
CXN
   47    50     1     0     0
SMALL
bcc


@<TRIPOS>ATOM
      1 C1         -0.3290    0.2750   -0.1960 c         1 CXN      0.667500
      2 O1         -1.0180    0.2380   -1.2020 o         1 CXN     -0.534500
      3 C2          1.2500    0.2200   -0.0530 cy        1 CXN     -0.069500
      4 C3          0.9640    0.4120    1.4820 cy        1 CXN      0.144800
      5 N7         -0.4870    0.2820    1.2100 n         1 CXN     -0.283800
      6 C6         -1.2920    1.2340    1.9450 c3        1 CXN     -0.129300
      7 C8         -1.8280    0.5950    3.3280 c         1 CXN      0.958600
      8 O81        -3.0200    0.8880    3.5620 o         1 CXN     -0.772300
      9 O82        -1.0200   -0.0740    4.0050 o         1 CXN     -0.772300
     10 C5         -0.4880    2.5280    2.2370 c3        1 CXN      0.114100
     11 C51        -0.6840    3.0170    3.6470 c3        1 CXN     -0.101600
     12 C52        -0.7860    3.6110    1.2320 c3        1 CXN     -0.101600
     13 S4          1.3100    2.0710    2.0630 ss        1 CXN     -0.408200
     14 N2          1.9400    1.3450   -0.7090 ny        1 CXN     -0.665800
     15 C21         3.3440    1.0580   -1.1360 c         1 CXN      0.604700
     16 O21         3.9210    0.1100   -0.6060 o         1 CXN     -0.456100
     17 C22         3.9050    1.9410   -2.1270 cc        1 CXN     -0.458200
     18 N25         4.2150    3.4850   -3.7860 nd        1 CXN     -0.303300
     19 O24         5.3890    2.9500   -3.4900 os        1 CXN     -0.091100
     20 C23         5.2600    1.9920   -2.4790 cd        1 CXN      0.421000
     21 C26         3.2650    2.9340   -3.0060 cc        1 CXN      0.416800
     22 C27         6.4690    1.3060   -2.0310 c3        1 CXN     -0.180400
     23 C28         1.8470    3.2680   -3.0730 ca        1 CXN     -0.200500
     24 C29         1.2570    4.1300   -2.1320 ca        1 CXN      0.006400
     25 Cl          2.1810    4.7900   -0.8690 cl        1 CXN     -0.066400
     26 C30        -0.0990    4.4560   -2.2300 ca        1 CXN     -0.121000
     27 C31        -0.8650    3.9310   -3.2710 ca        1 CXN     -0.083000
     28 C32        -0.2820    3.0850   -4.2150 ca        1 CXN     -0.116000
     29 C33         1.0690    2.7580   -4.1210 ca        1 CXN     -0.086000
     30 H2          1.7200   -0.7610   -0.3120 hx        1 CXN      0.144700
     31 H3          1.3540   -0.3760    2.1650 h2        1 CXN      0.166700
     32 H6         -2.2100    1.4850    1.3420 h1        1 CXN      0.100700
     33 H511       -0.2810    2.2720    4.3800 hc        1 CXN      0.057700
     34 H512       -0.1760    4.0000    3.7980 hc        1 CXN      0.057700
     35 H513       -1.7810    3.1300    3.8490 hc        1 CXN      0.057700
     36 H521       -0.1240    4.4980    1.3910 hc        1 CXN      0.057700
     37 H522       -1.8490    3.9410    1.3500 hc        1 CXN      0.057700
     38 H523       -0.6460    3.2450    0.1850 hc        1 CXN      0.057700
     39 HN2         1.9460    2.1500    0.0050 hn        1 CXN      0.481300
     40 H271        7.1120    2.0150   -1.4440 hc        1 CXN      0.099033
     41 H272        7.0630    0.9460   -2.9110 hc        1 CXN      0.099033
     42 H273        6.1980    0.4350   -1.3810 hc        1 CXN      0.099033
     43 H30        -0.5600    5.1290   -1.4880 ha        1 CXN      0.169000
     44 H31        -1.9340    4.1890   -3.3450 ha        1 CXN      0.162000
     45 H32        -0.8890    2.6740   -5.0380 ha        1 CXN      0.160000
     46 H33         1.5330    2.1040   -4.8770 ha        1 CXN      0.156000
     47 H22         1.3910    1.6360   -1.5300 hn        1 CXN      0.481300
@<TRIPOS>BOND
     1    1    2 2   
     2    1    3 1   
     3    1    5 1   
     4    3    4 1   
     5    3   14 1   
     6    3   30 1   
     7    4    5 1   
     8    4   13 1   
     9    4   31 1   
    10    5    6 1   
    11    6    7 1   
    12    6   10 1   
    13    6   32 1   
    14    7    8 1   
    15    7    9 1   
    16   10   11 1   
    17   10   12 1   
    18   10   13 1   
    19   11   33 1   
    20   11   34 1   
    21   11   35 1   
    22   12   36 1   
    23   12   37 1   
    24   12   38 1   
    25   14   15 1   
    26   14   39 1   
    27   14   47 1   
    28   15   16 2   
    29   15   17 1   
    30   17   20 2   
    31   17   21 1   
    32   18   19 1   
    33   18   21 2   
    34   19   20 1   
    35   20   22 1   
    36   21   23 1   
    37   22   40 1   
    38   22   41 1   
    39   22   42 1   
    40   23   24 ar  
    41   23   29 ar  
    42   24   25 1   
    43   24   26 ar  
    44   26   27 ar  
    45   26   43 1   
    46   27   28 ar  
    47   27   44 1   
    48   28   29 ar  
    49   28   45 1   
    50   29   46 1   
@<TRIPOS>SUBSTRUCTURE
     1 CXN         1 TEMP              0 ****  ****    0 ROOT
