@<TRIPOS>MOLECULE
CXO
   16    16     1     0     0
SMALL
bcc


@<TRIPOS>ATOM
      1 O2         -1.6150    1.3670    0.5940 o         1 CXO     -0.481100
      2 C2         -0.6860    0.7520    0.0730 c         1 CXO      0.478100
      3 C3          0.5600    1.4110   -0.4460 c3        1 CXO     -0.181400
      4 C4          1.7990    0.7480    0.1220 c3        1 CXO     -0.078400
      5 C5          1.7990   -0.7480   -0.1190 c3        1 CXO     -0.078400
      6 C6          0.5590   -1.4100    0.4460 c3        1 CXO     -0.181400
      7 C1         -0.6860   -0.7510   -0.0750 c         1 CXO      0.478100
      8 O1         -1.6140   -1.3660   -0.5990 o         1 CXO     -0.481100
      9 H31         0.5570    1.3290   -1.5660 hc        1 CXO      0.077200
     10 H32         0.5520    2.5010   -0.1820 hc        1 CXO      0.077200
     11 H41         2.7070    1.2030   -0.3540 hc        1 CXO      0.054200
     12 H42         1.8600    0.9520    1.2230 hc        1 CXO      0.054200
     13 H51         1.8620   -0.9510   -1.2210 hc        1 CXO      0.054200
     14 H52         2.7060   -1.2030    0.3580 hc        1 CXO      0.054200
     15 H61         0.5510   -2.5010    0.1830 hc        1 CXO      0.077200
     16 H62         0.5530   -1.3280    1.5660 hc        1 CXO      0.077200
@<TRIPOS>BOND
     1    1    2 2   
     2    2    3 1   
     3    2    7 1   
     4    3    4 1   
     5    3    9 1   
     6    3   10 1   
     7    4    5 1   
     8    4   11 1   
     9    4   12 1   
    10    5    6 1   
    11    5   13 1   
    12    5   14 1   
    13    6    7 1   
    14    6   15 1   
    15    6   16 1   
    16    7    8 2   
@<TRIPOS>SUBSTRUCTURE
     1 CXO         1 TEMP              0 ****  ****    0 ROOT
