@<TRIPOS>MOLECULE
CXO
   16    16     1     0     0
SMALL
bcc


@<TRIPOS>ATOM
      1 O2         -0.0430   -0.2000   -0.0400 o         1 CXO     -0.481100
      2 C2          1.1780   -0.0570   -0.0170 c         1 CXO      0.478100
      3 C3          1.9870   -0.0130    1.2480 c3        1 CXO     -0.181400
      4 C4          3.1370   -0.9980    1.1890 c3        1 CXO     -0.078400
      5 C5          3.9920   -0.7940   -0.0440 c3        1 CXO     -0.078400
      6 C6          3.1750   -0.8830   -1.3180 c3        1 CXO     -0.181400
      7 C1          2.0080    0.0610   -1.2740 c         1 CXO      0.478100
      8 O1          1.7560    0.8760   -2.1600 o         1 CXO     -0.481100
      9 H31         2.3790    1.0320    1.3750 hc        1 CXO      0.077200
     10 H32         1.3290   -0.2410    2.1280 hc        1 CXO      0.077200
     11 H41         2.7330   -2.0450    1.1980 hc        1 CXO      0.054200
     12 H42         3.7700   -0.8760    2.1070 hc        1 CXO      0.054200
     13 H51         4.7990   -1.5730   -0.0730 hc        1 CXO      0.054200
     14 H52         4.4940    0.2080    0.0080 hc        1 CXO      0.054200
     15 H61         2.7760   -1.9240   -1.4490 hc        1 CXO      0.077200
     16 H62         3.8200   -0.6490   -2.2060 hc        1 CXO      0.077200
@<TRIPOS>BOND
     1    1    2 2   
     2    2    3 1   
     3    2    7 1   
     4    3    4 1   
     5    3    9 1   
     6    3   10 1   
     7    4    5 1   
     8    4   11 1   
     9    4   12 1   
    10    5    6 1   
    11    5   13 1   
    12    5   14 1   
    13    6    7 1   
    14    6   15 1   
    15    6   16 1   
    16    7    8 2   
@<TRIPOS>SUBSTRUCTURE
     1 CXO         1 TEMP              0 ****  ****    0 ROOT
