@<TRIPOS>MOLECULE
CXO
   16    16     1     0     0
SMALL
bcc


@<TRIPOS>ATOM
      1 O2         -0.0430   -0.2080   -0.0480 o         1 CXO     -0.481100
      2 C2          1.1780   -0.0600   -0.0200 c         1 CXO      0.478100
      3 C3          1.9820   -0.0230    1.2480 c3        1 CXO     -0.181400
      4 C4          3.1370   -1.0030    1.1850 c3        1 CXO     -0.078400
      5 C5          3.9940   -0.7870   -0.0440 c3        1 CXO     -0.078400
      6 C6          3.1820   -0.8690   -1.3210 c3        1 CXO     -0.181400
      7 C1          2.0110    0.0700   -1.2730 c         1 CXO      0.478100
      8 O1          1.7590    0.8900   -2.1540 o         1 CXO     -0.481100
      9 H31         2.3700    1.0220    1.3840 hc        1 CXO      0.077200
     10 H32         1.3230   -0.2600    2.1240 hc        1 CXO      0.077200
     11 H41         3.7660   -0.8850    2.1060 hc        1 CXO      0.054200
     12 H42         2.7370   -2.0520    1.1850 hc        1 CXO      0.054200
     13 H51         4.8040   -1.5620   -0.0760 hc        1 CXO      0.054200
     14 H52         4.4930    0.2170    0.0170 hc        1 CXO      0.054200
     15 H61         2.7870   -1.9110   -1.4610 hc        1 CXO      0.077200
     16 H62         3.8290   -0.6260   -2.2050 hc        1 CXO      0.077200
@<TRIPOS>BOND
     1    1    2 2   
     2    2    3 1   
     3    2    7 1   
     4    3    4 1   
     5    3    9 1   
     6    3   10 1   
     7    4    5 1   
     8    4   11 1   
     9    4   12 1   
    10    5    6 1   
    11    5   13 1   
    12    5   14 1   
    13    6    7 1   
    14    6   15 1   
    15    6   16 1   
    16    7    8 2   
@<TRIPOS>SUBSTRUCTURE
     1 CXO         1 TEMP              0 ****  ****    0 ROOT
