@<TRIPOS>MOLECULE
CXO
   16    15     1     0     0
SMALL
bcc


@<TRIPOS>ATOM
      1 O2         -2.7960   -0.3480   -0.1000 o         1 CXO     -0.242000
      2 C2         -1.5810   -0.3480   -0.1000 c1        1 CXO      0.189000
      3 C3         -0.9000   -0.3480    1.1520 c2        1 CXO     -0.210000
      4 C4          0.7200   -0.4300    0.9740 c3        1 CXO     -0.157000
      5 C5          1.2070    0.3690    0.2080 c3        1 CXO     -0.157000
      6 C6          0.6390    0.3230   -1.3270 c3        1 CXO     -0.210000
      7 C1         -0.7890    0.3580   -1.3600 c2        1 CXO      0.189000
      8 O1         -1.3680    0.5480   -2.4110 o         1 CXO     -0.242000
      9 H31        -1.2670   -1.0430    1.7310 ha        1 CXO      0.116500
     10 H32        -1.1200    0.4510    1.6670 ha        1 CXO      0.116500
     11 H41         0.9470   -1.3270    0.6630 hc        1 CXO      0.093500
     12 H42         1.1290   -0.2980    1.8510 hc        1 CXO      0.093500
     13 H51         1.0510    1.2640    0.5630 hc        1 CXO      0.093500
     14 H52         2.1710    0.2140    0.1800 hc        1 CXO      0.093500
     15 H61         0.8930   -0.4390   -1.8810 hc        1 CXO      0.116500
     16 H62         1.0650    1.0550   -1.8120 hc        1 CXO      0.116500
@<TRIPOS>BOND
     1    1    2 1   
     2    2    7 1   
     3    3    4 1   
     4    3    9 1   
     5    3   10 1   
     6    4    5 1   
     7    4   11 1   
     8    4   12 1   
     9    5    6 1   
    10    5   13 1   
    11    5   14 1   
    12    6    7 1   
    13    6   15 1   
    14    6   16 1   
    15    7    8 1   
@<TRIPOS>SUBSTRUCTURE
     1 CXO         1 TEMP              0 ****  ****    0 ROOT
