@<TRIPOS>MOLECULE
CXP
   26    26     1     0     0
SMALL
bcc


@<TRIPOS>ATOM
      1 C1          0.1620    0.2790   -0.8050 c3        1 CXP     -0.063700
      2 C2          1.3050   -0.0240   -1.7640 c3        1 CXP     -0.073900
      3 C3          0.9600    0.3690   -3.1860 c3        1 CXP     -0.074900
      4 C4         -0.3170   -0.3010   -3.6500 c3        1 CXP     -0.072400
      5 C5         -1.4610   -0.0100   -2.7000 c3        1 CXP     -0.074900
      6 C6         -1.1130   -0.4050   -1.2800 c3        1 CXP     -0.073900
      7 C7          0.5300   -0.1540    0.6070 c3        1 CXP     -0.063400
      8 C8         -0.4150    0.3820    1.6540 c3        1 CXP     -0.194400
      9 C9          0.1370    0.1560    3.0730 c         1 CXP      0.907600
     10 O1         -0.6660   -0.2660    3.9540 o         1 CXP     -0.852800
     11 O2          1.3540    0.4210    3.2980 o         1 CXP     -0.852800
     12 H1         -0.0140    1.3910   -0.8050 hc        1 CXP      0.039700
     13 H21         2.2220    0.5310   -1.4350 hc        1 CXP      0.040200
     14 H22         1.5420   -1.1190   -1.7240 hc        1 CXP      0.040200
     15 H31         0.8380    1.4830   -3.2450 hc        1 CXP      0.026700
     16 H32         1.8020    0.0870   -3.8710 hc        1 CXP      0.026700
     17 H41        -0.5790    0.0570   -4.6800 hc        1 CXP      0.025700
     18 H42        -0.1550   -1.4090   -3.7090 hc        1 CXP      0.025700
     19 H51        -1.7030    1.0840   -2.7350 hc        1 CXP      0.026700
     20 H52        -2.3750   -0.5670   -3.0330 hc        1 CXP      0.026700
     21 H61        -0.9820   -1.5170   -1.2200 hc        1 CXP      0.040200
     22 H62        -1.9550   -0.1290   -0.5940 hc        1 CXP      0.040200
     23 H71         1.5650    0.2100    0.8500 hc        1 CXP      0.046200
     24 H72         0.5520   -1.2730    0.6590 hc        1 CXP      0.046200
     25 H81        -1.4180   -0.1070    1.5680 hc        1 CXP      0.019200
     26 H82        -0.5570    1.4840    1.5160 hc        1 CXP      0.019200
@<TRIPOS>BOND
     1    1    2 1   
     2    1    6 1   
     3    1    7 1   
     4    1   12 1   
     5    2    3 1   
     6    2   13 1   
     7    2   14 1   
     8    3    4 1   
     9    3   15 1   
    10    3   16 1   
    11    4    5 1   
    12    4   17 1   
    13    4   18 1   
    14    5    6 1   
    15    5   19 1   
    16    5   20 1   
    17    6   21 1   
    18    6   22 1   
    19    7    8 1   
    20    7   23 1   
    21    7   24 1   
    22    8    9 1   
    23    8   25 1   
    24    8   26 1   
    25    9   10 1   
    26    9   11 1   
@<TRIPOS>SUBSTRUCTURE
     1 CXP         1 TEMP              0 ****  ****    0 ROOT
