@<TRIPOS>MOLECULE
CXP
   26    26     1     0     0
SMALL
bcc


@<TRIPOS>ATOM
      1 C1         -0.0380    0.1160   -0.0090 c3        1 CXP     -0.063700
      2 C2          1.4840    0.0720   -0.0290 c3        1 CXP     -0.073900
      3 C3          2.0590    0.0190    1.3710 c3        1 CXP     -0.074900
      4 C4          1.5710    1.1790    2.2130 c3        1 CXP     -0.072400
      5 C5          0.0570    1.2360    2.2370 c3        1 CXP     -0.074900
      6 C6         -0.5150    1.2890    0.8360 c3        1 CXP     -0.073900
      7 C7         -0.5820    0.1980   -1.4270 c3        1 CXP     -0.063400
      8 C8         -2.0670   -0.0590   -1.5070 c3        1 CXP     -0.194400
      9 C9         -2.5260   -0.2380   -2.9650 c         1 CXP      0.907600
     10 O1         -3.5900    0.3470   -3.3210 o         1 CXP     -0.852800
     11 O2         -1.8370   -0.9720   -3.7320 o         1 CXP     -0.852800
     12 H1         -0.4130   -0.8350    0.4650 hc        1 CXP      0.039700
     13 H21         1.8210   -0.8280   -0.6070 hc        1 CXP      0.040200
     14 H22         1.8730    0.9790   -0.5620 hc        1 CXP      0.040200
     15 H31         1.7620   -0.9460    1.8600 hc        1 CXP      0.026700
     16 H32         3.1790    0.0380    1.3200 hc        1 CXP      0.026700
     17 H41         1.9730    2.1390    1.7940 hc        1 CXP      0.025700
     18 H42         1.9630    1.0790    3.2590 hc        1 CXP      0.025700
     19 H51        -0.3400    0.3310    2.7680 hc        1 CXP      0.026700
     20 H52        -0.2750    2.1380    2.8150 hc        1 CXP      0.026700
     21 H61        -0.2110    2.2500    0.3430 hc        1 CXP      0.040200
     22 H62        -1.6350    1.2760    0.8840 hc        1 CXP      0.040200
     23 H71        -0.3530    1.2080   -1.8560 hc        1 CXP      0.046200
     24 H72        -0.0600   -0.5620   -2.0710 hc        1 CXP      0.046200
     25 H81        -2.3250   -0.9970   -0.9520 hc        1 CXP      0.019200
     26 H82        -2.6380    0.7830   -1.0420 hc        1 CXP      0.019200
@<TRIPOS>BOND
     1    1    2 1   
     2    1    6 1   
     3    1    7 1   
     4    1   12 1   
     5    2    3 1   
     6    2   13 1   
     7    2   14 1   
     8    3    4 1   
     9    3   15 1   
    10    3   16 1   
    11    4    5 1   
    12    4   17 1   
    13    4   18 1   
    14    5    6 1   
    15    5   19 1   
    16    5   20 1   
    17    6   21 1   
    18    6   22 1   
    19    7    8 1   
    20    7   23 1   
    21    7   24 1   
    22    8    9 1   
    23    8   25 1   
    24    8   26 1   
    25    9   10 1   
    26    9   11 1   
@<TRIPOS>SUBSTRUCTURE
     1 CXP         1 TEMP              0 ****  ****    0 ROOT
