@<TRIPOS>MOLECULE
CXP
   26    26     1     0     0
SMALL
bcc


@<TRIPOS>ATOM
      1 C1         -0.0900   -0.3990   -0.7870 c3        1 CXP     -0.062700
      2 C2          1.4270   -0.3990   -0.7870 c3        1 CXP     -0.068900
      3 C3          2.0050   -0.3990    0.6110 c3        1 CXP     -0.074400
      4 C4          1.4260   -1.5010    1.4790 c3        1 CXP     -0.070400
      5 C5         -0.0910   -1.5010    1.4790 c3        1 CXP     -0.074400
      6 C6         -0.6700   -1.5020    0.0810 c3        1 CXP     -0.068900
      7 C7         -0.5830    0.9500   -0.2660 c3        1 CXP     -0.063400
      8 C8         -1.4290    1.6210   -1.3260 c3        1 CXP     -0.195400
      9 C9         -1.9910    2.9150   -0.7790 c         1 CXP      0.907600
     10 O1         -1.3190    3.9770   -0.8600 o         1 CXP     -0.852800
     11 O2         -3.1300    2.9290   -0.2440 o         1 CXP     -0.852800
     12 H1         -0.4050   -0.5190   -1.7030 hc        1 CXP      0.036700
     13 H21         1.7430    0.3950   -1.2590 hc        1 CXP      0.030200
     14 H22         1.7430   -1.1930   -1.2590 hc        1 CXP      0.030200
     15 H31         1.8190    0.4630    1.0300 hc        1 CXP      0.035700
     16 H32         2.9720   -0.5190    0.5530 hc        1 CXP      0.035700
     17 H41         1.7410   -1.3800    2.3940 hc        1 CXP      0.022200
     18 H42         1.7410   -2.3630    1.1470 hc        1 CXP      0.022200
     19 H51        -0.4060   -2.2950    1.9510 hc        1 CXP      0.035700
     20 H52        -0.4070   -0.7070    1.9510 hc        1 CXP      0.035700
     21 H61        -1.6370   -1.3820    0.1400 hc        1 CXP      0.030200
     22 H62        -0.4830   -2.3640   -0.3370 hc        1 CXP      0.030200
     23 H71        -1.1190    0.8130    0.5380 hc        1 CXP      0.046700
     24 H72         0.1830    1.5170   -0.0540 hc        1 CXP      0.046700
     25 H81        -2.1620    1.0300   -1.5800 hc        1 CXP      0.018700
     26 H82        -0.8780    1.8120   -2.1100 hc        1 CXP      0.018700
@<TRIPOS>BOND
     1    1    2 1   
     2    1    6 1   
     3    1    7 1   
     4    1   12 1   
     5    2    3 1   
     6    2   13 1   
     7    2   14 1   
     8    3    4 1   
     9    3   15 1   
    10    3   16 1   
    11    4    5 1   
    12    4   17 1   
    13    4   18 1   
    14    5    6 1   
    15    5   19 1   
    16    5   20 1   
    17    6   21 1   
    18    6   22 1   
    19    7    8 1   
    20    7   23 1   
    21    7   24 1   
    22    8    9 1   
    23    8   25 1   
    24    8   26 1   
    25    9   10 1   
    26    9   11 1   
@<TRIPOS>SUBSTRUCTURE
     1 CXP         1 TEMP              0 ****  ****    0 ROOT
