@<TRIPOS>MOLECULE
CXP
   26    26     1     0     0
SMALL
bcc


@<TRIPOS>ATOM
      1 C1         -0.0440    0.1150   -0.0050 c3        1 CXP     -0.063700
      2 C2          1.4780    0.0430   -0.0190 c3        1 CXP     -0.073900
      3 C3          2.0470   -0.0030    1.3840 c3        1 CXP     -0.074900
      4 C4          1.5760    1.1760    2.2100 c3        1 CXP     -0.072400
      5 C5          0.0640    1.2600    2.2270 c3        1 CXP     -0.074900
      6 C6         -0.5020    1.3060    0.8230 c3        1 CXP     -0.073900
      7 C7         -0.5810    0.1880   -1.4270 c3        1 CXP     -0.063400
      8 C8         -2.0700   -0.0420   -1.5080 c3        1 CXP     -0.194400
      9 C9         -2.5270   -0.2310   -2.9660 c         1 CXP      0.907600
     10 O1         -3.5760    0.3700   -3.3350 o         1 CXP     -0.852800
     11 O2         -1.8490   -0.9900   -3.7190 o         1 CXP     -0.852800
     12 H1         -0.4370   -0.8240    0.4790 hc        1 CXP      0.039700
     13 H21         1.8000   -0.8700   -0.5840 hc        1 CXP      0.040200
     14 H22         1.8850    0.9360   -0.5610 hc        1 CXP      0.040200
     15 H31         1.7300   -0.9560    1.8840 hc        1 CXP      0.026700
     16 H32         3.1670   -0.0050    1.3370 hc        1 CXP      0.026700
     17 H41         1.9620    1.0820    3.2590 hc        1 CXP      0.025700
     18 H42         1.9960    2.1230    1.7800 hc        1 CXP      0.025700
     19 H51        -0.2550    2.1750    2.7930 hc        1 CXP      0.026700
     20 H52        -0.3520    0.3690    2.7680 hc        1 CXP      0.026700
     21 H61        -1.6230    1.3130    0.8670 hc        1 CXP      0.040200
     22 H62        -0.1800    2.2550    0.3190 hc        1 CXP      0.040200
     23 H71        -0.0710   -0.5900   -2.0590 hc        1 CXP      0.046200
     24 H72        -0.3310    1.1880   -1.8670 hc        1 CXP      0.046200
     25 H81        -2.6270    0.8170   -1.0580 hc        1 CXP      0.019200
     26 H82        -2.3470   -0.9670   -0.9430 hc        1 CXP      0.019200
@<TRIPOS>BOND
     1    1    2 1   
     2    1    6 1   
     3    1    7 1   
     4    1   12 1   
     5    2    3 1   
     6    2   13 1   
     7    2   14 1   
     8    3    4 1   
     9    3   15 1   
    10    3   16 1   
    11    4    5 1   
    12    4   17 1   
    13    4   18 1   
    14    5    6 1   
    15    5   19 1   
    16    5   20 1   
    17    6   21 1   
    18    6   22 1   
    19    7    8 1   
    20    7   23 1   
    21    7   24 1   
    22    8    9 1   
    23    8   25 1   
    24    8   26 1   
    25    9   10 1   
    26    9   11 1   
@<TRIPOS>SUBSTRUCTURE
     1 CXP         1 TEMP              0 ****  ****    0 ROOT
