@<TRIPOS>MOLECULE
CXS
   33    33     1     0     0
SMALL
bcc


@<TRIPOS>ATOM
      1 S           0.0030    0.0860   -0.0200 s6        1 CXS      1.438800
      2 O1          1.3950    0.2010   -0.0760 o         1 CXS     -0.735533
      3 O2         -0.5560   -0.1010    1.2590 o         1 CXS     -0.735533
      4 O3         -0.7280    0.9680   -0.8400 o         1 CXS     -0.735533
      5 C1         -0.3280   -1.5300   -0.8180 c3        1 CXS     -0.280600
      6 C2         -1.8050   -1.7410   -0.8090 c3        1 CXS     -0.069400
      7 C3         -2.1510   -3.0620   -1.4820 c3        1 CXS      0.107800
      8 N          -3.6320   -3.2940   -1.4920 n4        1 CXS     -0.767000
      9 C4         -4.0320   -4.5560   -2.2010 c3        1 CXS      0.118500
     10 C5         -5.4020   -5.0480   -1.7160 c3        1 CXS     -0.098400
     11 C6         -5.7430   -6.3590   -2.3970 c3        1 CXS     -0.077400
     12 C7         -5.7280   -6.2220   -3.9040 c3        1 CXS     -0.088400
     13 C8         -4.4000   -5.6840   -4.3930 c3        1 CXS     -0.077400
     14 C9         -4.0520   -4.3700   -3.7230 c3        1 CXS     -0.098400
     15 H11         0.0830   -1.5000   -1.8500 h1        1 CXS      0.072200
     16 H12         0.2090   -2.3190   -0.2470 h1        1 CXS      0.072200
     17 H21        -2.1670   -1.7360    0.2570 hc        1 CXS      0.078700
     18 H22        -2.2970   -0.8840   -1.3490 hc        1 CXS      0.078700
     19 H31        -1.6690   -3.9180   -0.9330 hx        1 CXS      0.092700
     20 H32        -1.7910   -3.0620   -2.5490 hx        1 CXS      0.092700
     21 HN         -3.9610   -3.3320   -0.5210 hn        1 CXS      0.444800
     22 H4         -3.2530   -5.3340   -1.9370 hx        1 CXS      0.104700
     23 H51        -6.1900   -4.2860   -1.9550 hc        1 CXS      0.063200
     24 H52        -5.3920   -5.2010   -0.6050 hc        1 CXS      0.063200
     25 H61        -5.0110   -7.1490   -2.0800 hc        1 CXS      0.061950
     26 H62        -6.7610   -6.6890   -2.0570 hc        1 CXS      0.061950
     27 H71        -6.5550   -5.5370   -4.2290 hc        1 CXS      0.058700
     28 H72        -5.9190   -7.2240   -4.3720 hc        1 CXS      0.058700
     29 H81        -3.5900   -6.4350   -4.1930 hc        1 CXS      0.061950
     30 H82        -4.4430   -5.5230   -5.5020 hc        1 CXS      0.061950
     31 H91        -4.8120   -3.5930   -4.0030 hc        1 CXS      0.063200
     32 H92        -3.0490   -4.0210   -4.0860 hc        1 CXS      0.063200
     33 HN3        -4.0850   -2.4910   -1.9430 hn        1 CXS      0.444800
@<TRIPOS>BOND
     1    1    2 1   
     2    1    3 1   
     3    1    4 1   
     4    1    5 1   
     5    5    6 1   
     6    5   15 1   
     7    5   16 1   
     8    6    7 1   
     9    6   17 1   
    10    6   18 1   
    11    7    8 1   
    12    7   19 1   
    13    7   20 1   
    14    8    9 1   
    15    8   21 1   
    16    8   33 1   
    17    9   10 1   
    18    9   14 1   
    19    9   22 1   
    20   10   11 1   
    21   10   23 1   
    22   10   24 1   
    23   11   12 1   
    24   11   25 1   
    25   11   26 1   
    26   12   13 1   
    27   12   27 1   
    28   12   28 1   
    29   13   14 1   
    30   13   29 1   
    31   13   30 1   
    32   14   31 1   
    33   14   32 1   
@<TRIPOS>SUBSTRUCTURE
     1 CXS         1 TEMP              0 ****  ****    0 ROOT
