@<TRIPOS>MOLECULE
CXS
   32    32     1     0     0
SMALL
bcc


@<TRIPOS>ATOM
      1 S          -0.7040   -1.0500    3.0460 s6        1 CXS      1.427800
      2 O1         -1.2480   -2.1280    2.3060 o         1 CXS     -0.752533
      3 O2         -1.6380   -0.0250    3.3320 o         1 CXS     -0.752533
      4 O3          0.0650   -1.4540    4.1640 o         1 CXS     -0.752533
      5 C1          0.4910   -0.2980    1.9570 c3        1 CXS     -0.287600
      6 C2         -0.1330    0.1990    0.6870 c3        1 CXS     -0.072400
      7 C3          0.9090    0.8220   -0.2400 c3        1 CXS      0.153800
      8 N           0.4260    1.3730   -1.4920 n3        1 CXS     -0.822200
      9 C4          0.0940    0.3660   -2.5020 c3        1 CXS      0.170500
     10 C5         -1.0490    0.8180   -3.4270 c3        1 CXS     -0.076900
     11 C6         -1.3820   -0.2630   -4.4330 c3        1 CXS     -0.076400
     12 C7         -0.1710   -0.6450   -5.2590 c3        1 CXS     -0.074400
     13 C8          0.9830   -1.0570   -4.3690 c3        1 CXS     -0.076400
     14 C9          1.3220    0.0250   -3.3650 c3        1 CXS     -0.076900
     15 H11         0.9860    0.5440    2.4960 h1        1 CXS      0.062700
     16 H12         1.2850   -1.0480    1.7260 h1        1 CXS      0.062700
     17 H21        -0.6450   -0.6580    0.1710 hc        1 CXS      0.048700
     18 H22        -0.9220    0.9590    0.9380 hc        1 CXS      0.048700
     19 H31         1.4110    1.6720    0.3040 h1        1 CXS      0.041700
     20 H32         1.6990    0.0530   -0.4690 h1        1 CXS      0.041700
     21 HN         -0.3800    1.9460   -1.3170 hn        1 CXS      0.351800
     22 H4         -0.2420   -0.5990   -2.0070 h1        1 CXS      0.041700
     23 H51        -1.9620    1.0480   -2.8180 hc        1 CXS      0.041700
     24 H52        -0.7510    1.7560   -3.9640 hc        1 CXS      0.041700
     25 H61        -1.7660   -1.1690   -3.8940 hc        1 CXS      0.036450
     26 H62        -2.1990    0.0980   -5.1110 hc        1 CXS      0.036450
     27 H71        -0.4350   -1.4870   -5.9490 hc        1 CXS      0.029700
     28 H72         0.1400    0.2270   -5.8930 hc        1 CXS      0.029700
     29 H81         0.7160   -2.0020   -3.8260 hc        1 CXS      0.036450
     30 H82         1.8840   -1.2750   -5.0000 hc        1 CXS      0.036450
     31 H91         1.6740    0.9440   -3.9000 hc        1 CXS      0.041700
     32 H92         2.1580   -0.3270   -2.7060 hc        1 CXS      0.041700
@<TRIPOS>BOND
     1    1    2 1   
     2    1    3 1   
     3    1    4 1   
     4    1    5 1   
     5    5    6 1   
     6    5   15 1   
     7    5   16 1   
     8    6    7 1   
     9    6   17 1   
    10    6   18 1   
    11    7    8 1   
    12    7   19 1   
    13    7   20 1   
    14    8    9 1   
    15    8   21 1   
    16    9   10 1   
    17    9   14 1   
    18    9   22 1   
    19   10   11 1   
    20   10   23 1   
    21   10   24 1   
    22   11   12 1   
    23   11   25 1   
    24   11   26 1   
    25   12   13 1   
    26   12   27 1   
    27   12   28 1   
    28   13   14 1   
    29   13   29 1   
    30   13   30 1   
    31   14   31 1   
    32   14   32 1   
@<TRIPOS>SUBSTRUCTURE
     1 CXS         1 TEMP              0 ****  ****    0 ROOT
