@<TRIPOS>MOLECULE
CXS
   32    30     1     0     0
SMALL
bcc


@<TRIPOS>ATOM
      1 S           3.6330    3.3890    0.5690 ss        1 CXS      2.856000
      2 O1          2.8700    4.6210    0.1470 o         1 CXS     -1.076000
      3 O2          5.0350    3.7520    0.1410 o         1 CXS     -1.076000
      4 O3          3.5530    3.1800    2.0620 os        1 CXS     -1.074000
      5 C1          3.0530    1.9480   -0.2850 c2        1 CXS     -0.828000
      6 C2          1.7210    1.5220    0.2930 c3        1 CXS     -0.148000
      7 C3          1.1170    0.4410   -0.5760 c3        1 CXS     -0.080000
      8 N          -0.1010   -0.0120    0.0070 n3        1 CXS     -0.302000
      9 C4         -0.6950   -1.0080   -0.8380 c3        1 CXS     -0.019000
     10 C5         -0.6190   -2.3510   -0.1400 c3        1 CXS     -0.171000
     11 C6         -1.5210   -2.4250    1.0720 c3        1 CXS     -0.156000
     12 C7         -2.9480   -2.0150    0.7590 c3        1 CXS     -0.154000
     13 C8         -3.0240   -0.6710    0.0620 c3        1 CXS     -0.156000
     14 C9         -2.1230   -0.5970   -1.1510 c3        1 CXS     -0.171000
     15 H11         2.9450    2.1530   -1.2350 ha        1 CXS      0.102000
     16 H12         3.7010    1.2230   -0.1800 ha        1 CXS      0.102000
     17 H21         1.8550    1.1760    1.1980 hc        1 CXS      0.088500
     18 H22         1.1180    2.2910    0.3240 hc        1 CXS      0.088500
     19 H31         0.9370    0.8030   -1.4690 h1        1 CXS      0.077500
     20 H32         1.7430   -0.3090   -0.6480 h1        1 CXS      0.077500
     21 HN         -0.6760    0.6940    0.0980 hn        1 CXS      0.149000
     22 H4         -0.1900   -1.0560   -1.6740 h1        1 CXS      0.083000
     23 H51         0.3040   -2.5090    0.1420 hc        1 CXS      0.081750
     24 H52        -0.8810   -3.0510   -0.7720 hc        1 CXS      0.081750
     25 H61        -1.5230   -3.3430    1.4090 hc        1 CXS      0.080500
     26 H62        -1.1670   -1.8340    1.7660 hc        1 CXS      0.080500
     27 H71        -3.4530   -1.9660    1.5960 hc        1 CXS      0.069000
     28 H72        -3.3530   -2.6940    0.1840 hc        1 CXS      0.069000
     29 H81        -3.9470   -0.5140   -0.2210 hc        1 CXS      0.080500
     30 H82        -2.7630    0.0290    0.6930 hc        1 CXS      0.080500
     31 H91        -2.4770   -1.1890   -1.8450 hc        1 CXS      0.081750
     32 H92        -2.1210    0.3210   -1.4880 hc        1 CXS      0.081750
@<TRIPOS>BOND
     1    1    2 1   
     2    1    3 1   
     3    5    6 1   
     4    5   15 1   
     5    5   16 1   
     6    6    7 1   
     7    6   17 1   
     8    6   18 1   
     9    7    8 1   
    10    7   19 1   
    11    7   20 1   
    12    8    9 1   
    13    8   21 1   
    14    9   10 1   
    15    9   14 1   
    16    9   22 1   
    17   10   11 1   
    18   10   23 1   
    19   10   24 1   
    20   11   12 1   
    21   11   25 1   
    22   11   26 1   
    23   12   13 1   
    24   12   27 1   
    25   12   28 1   
    26   13   14 1   
    27   13   29 1   
    28   13   30 1   
    29   14   31 1   
    30   14   32 1   
@<TRIPOS>SUBSTRUCTURE
     1 CXS         1 TEMP              0 ****  ****    0 ROOT
