@<TRIPOS>MOLECULE
CXS
   33    33     1     0     0
SMALL
bcc


@<TRIPOS>ATOM
      1 S          -0.0030    0.0960   -0.0300 s6        1 CXS      1.438800
      2 O1          1.3880    0.2180   -0.0980 o         1 CXS     -0.735533
      3 O2         -0.5520   -0.0870    1.2540 o         1 CXS     -0.735533
      4 O3         -0.7460    0.9680   -0.8500 o         1 CXS     -0.735533
      5 C1         -0.3310   -1.5280   -0.8160 c3        1 CXS     -0.280600
      6 C2         -1.8080   -1.7450   -0.8000 c3        1 CXS     -0.069400
      7 C3         -2.1520   -3.0660   -1.4740 c3        1 CXS      0.107800
      8 N          -3.6330   -3.2980   -1.4860 n4        1 CXS     -0.767000
      9 C4         -4.0310   -4.5590   -2.1990 c3        1 CXS      0.118500
     10 C5         -5.4020   -5.0530   -1.7170 c3        1 CXS     -0.098400
     11 C6         -5.7420   -6.3620   -2.4020 c3        1 CXS     -0.077400
     12 C7         -5.7240   -6.2210   -3.9090 c3        1 CXS     -0.088400
     13 C8         -4.3960   -5.6800   -4.3940 c3        1 CXS     -0.077400
     14 C9         -4.0490   -4.3680   -3.7200 c3        1 CXS     -0.098400
     15 H11         0.0760   -1.5030   -1.8500 h1        1 CXS      0.072200
     16 H12         0.2110   -2.3110   -0.2430 h1        1 CXS      0.072200
     17 H21        -2.3050   -0.8880   -1.3360 hc        1 CXS      0.078700
     18 H22        -2.1640   -1.7430    0.2680 hc        1 CXS      0.078700
     19 H31        -1.7910   -3.0640   -2.5410 hx        1 CXS      0.092700
     20 H32        -1.6700   -3.9220   -0.9250 hx        1 CXS      0.092700
     21 HN         -4.0850   -2.4940   -1.9350 hn        1 CXS      0.444800
     22 H4         -3.2520   -5.3370   -1.9360 hx        1 CXS      0.104700
     23 H51        -6.1890   -4.2900   -1.9550 hc        1 CXS      0.063200
     24 H52        -5.3930   -5.2090   -0.6060 hc        1 CXS      0.063200
     25 H61        -5.0100   -7.1520   -2.0870 hc        1 CXS      0.061950
     26 H62        -6.7590   -6.6930   -2.0650 hc        1 CXS      0.061950
     27 H71        -5.9150   -7.2210   -4.3800 hc        1 CXS      0.058700
     28 H72        -6.5510   -5.5350   -4.2330 hc        1 CXS      0.058700
     29 H81        -4.4370   -5.5160   -5.5040 hc        1 CXS      0.061950
     30 H82        -3.5860   -6.4310   -4.1960 hc        1 CXS      0.061950
     31 H91        -3.0460   -4.0180   -4.0810 hc        1 CXS      0.063200
     32 H92        -4.8090   -3.5910   -3.9990 hc        1 CXS      0.063200
     33 HN3        -3.9620   -3.3390   -0.5150 hn        1 CXS      0.444800
@<TRIPOS>BOND
     1    1    2 1   
     2    1    3 1   
     3    1    4 1   
     4    1    5 1   
     5    5    6 1   
     6    5   15 1   
     7    5   16 1   
     8    6    7 1   
     9    6   17 1   
    10    6   18 1   
    11    7    8 1   
    12    7   19 1   
    13    7   20 1   
    14    8    9 1   
    15    8   21 1   
    16    8   33 1   
    17    9   10 1   
    18    9   14 1   
    19    9   22 1   
    20   10   11 1   
    21   10   23 1   
    22   10   24 1   
    23   11   12 1   
    24   11   25 1   
    25   11   26 1   
    26   12   13 1   
    27   12   27 1   
    28   12   28 1   
    29   13   14 1   
    30   13   29 1   
    31   13   30 1   
    32   14   31 1   
    33   14   32 1   
@<TRIPOS>SUBSTRUCTURE
     1 CXS         1 TEMP              0 ****  ****    0 ROOT
