@<TRIPOS>MOLECULE
CXS
   33    33     1     0     0
SMALL
bcc


@<TRIPOS>ATOM
      1 S          -0.0030    0.0940   -0.0260 s6        1 CXS      1.438800
      2 O1          1.3880    0.2130   -0.0870 o         1 CXS     -0.735533
      3 O2         -0.5590   -0.0870    1.2560 o         1 CXS     -0.735533
      4 O3         -0.7400    0.9680   -0.8500 o         1 CXS     -0.735533
      5 C1         -0.3320   -1.5290   -0.8120 c3        1 CXS     -0.280600
      6 C2         -1.8090   -1.7430   -0.8020 c3        1 CXS     -0.069400
      7 C3         -2.1520   -3.0650   -1.4750 c3        1 CXS      0.107800
      8 N          -3.6340   -3.2950   -1.4900 ny        1 CXS     -0.767000
      9 C4         -4.0320   -4.5580   -2.1990 c3        1 CXS      0.118500
     10 C5         -5.4040   -5.0490   -1.7200 c3        1 CXS     -0.098400
     11 C6         -5.7440   -6.3590   -2.4020 c3        1 CXS     -0.077400
     12 C7         -5.7220   -6.2230   -3.9090 c3        1 CXS     -0.088400
     13 C8         -4.3920   -5.6860   -4.3930 c3        1 CXS     -0.077400
     14 C9         -4.0450   -4.3720   -3.7210 c3        1 CXS     -0.098400
     15 H11         0.2070   -2.3130   -0.2370 h1        1 CXS      0.072200
     16 H12         0.0790   -1.5050   -1.8450 h1        1 CXS      0.072200
     17 H21        -2.3020   -0.8860   -1.3420 hc        1 CXS      0.078700
     18 H22        -2.1690   -1.7380    0.2640 hc        1 CXS      0.078700
     19 H31        -1.6730   -3.9200   -0.9220 hx        1 CXS      0.092700
     20 H32        -1.7890   -3.0660   -2.5400 hx        1 CXS      0.092700
     21 HN         -4.0840   -2.4930   -1.9420 hn        1 CXS      0.444800
     22 H4         -3.2540   -5.3360   -1.9330 hx        1 CXS      0.104700
     23 H51        -5.3980   -5.2010   -0.6090 hc        1 CXS      0.063200
     24 H52        -6.1900   -4.2860   -1.9630 hc        1 CXS      0.063200
     25 H61        -6.7630   -6.6880   -2.0670 hc        1 CXS      0.061950
     26 H62        -5.0130   -7.1500   -2.0830 hc        1 CXS      0.061950
     27 H71        -6.5470   -5.5370   -4.2380 hc        1 CXS      0.058700
     28 H72        -5.9120   -7.2240   -4.3770 hc        1 CXS      0.058700
     29 H81        -4.4300   -5.5240   -5.5030 hc        1 CXS      0.061950
     30 H82        -3.5830   -6.4370   -4.1900 hc        1 CXS      0.061950
     31 H91        -4.8030   -3.5940   -4.0050 hc        1 CXS      0.063200
     32 H92        -3.0410   -4.0240   -4.0810 hc        1 CXS      0.063200
     33 HN3        -3.9660   -3.3330   -0.5200 hn        1 CXS      0.444800
@<TRIPOS>BOND
     1    1    2 1   
     2    1    3 1   
     3    1    4 1   
     4    1    5 1   
     5    5    6 1   
     6    5   15 1   
     7    5   16 1   
     8    6    7 1   
     9    6   17 1   
    10    6   18 1   
    11    7    8 1   
    12    7   19 1   
    13    7   20 1   
    14    8    9 1   
    15    8   21 1   
    16    8   33 1   
    17    9   10 1   
    18    9   14 1   
    19    9   22 1   
    20   10   11 1   
    21   10   23 1   
    22   10   24 1   
    23   11   12 1   
    24   11   25 1   
    25   11   26 1   
    26   12   13 1   
    27   12   27 1   
    28   12   28 1   
    29   13   14 1   
    30   13   29 1   
    31   13   30 1   
    32   14   31 1   
    33   14   32 1   
@<TRIPOS>SUBSTRUCTURE
     1 CXS         1 TEMP              0 ****  ****    0 ROOT
