@<TRIPOS>MOLECULE
CXU
   49    50     1     0     0
SMALL
bcc


@<TRIPOS>ATOM
      1 Cl         -1.2290    1.4920   -0.4350 cl        1 CXU     -0.087400
      2 C1          6.4420    0.5700    6.9520 c         1 CXU      0.596900
      3 O1          5.3580    0.4060    7.5060 o         1 CXU     -0.525100
      4 C2          6.5820    0.6070    5.4360 c3        1 CXU     -0.011500
      5 N2          5.2860    0.8610    4.7280 ny        1 CXU     -0.671800
      6 C3          7.6210    1.6980    5.0310 c3        1 CXU      0.281600
      7 S4          7.6210    1.7070    3.2070 ss        1 CXU     -0.490200
      8 C5          7.2420    3.5110    3.1030 c3        1 CXU      0.115100
      9 C6          6.6980    3.8490    4.5040 c3        1 CXU     -0.025500
     10 N7          7.2440    2.9880    5.5380 n7        1 CXU     -0.817200
     11 C8          6.9590    5.4010    4.7880 c         1 CXU      0.945600
     12 C21         4.3450   -0.3090    4.7620 c         1 CXU      0.630700
     13 O21         4.8300   -1.4320    4.7200 o         1 CXU     -0.432100
     14 C22         2.9480    0.0570    4.8500 cc        1 CXU     -0.469200
     15 C23         2.0530   -0.2230    5.8800 cd        1 CXU      0.408000
     16 O24         0.8070    0.2910    5.4880 os        1 CXU     -0.088100
     17 N25         0.8760    0.8520    4.2950 nd        1 CXU     -0.311300
     18 C26         2.1470    0.7590    3.8350 cc        1 CXU      0.510300
     19 C28         2.6170    1.2220    2.6070 cg        1 CXU     -0.303000
     20 C29         0.3870    1.8530   -0.1090 c2        1 CXU     -0.023600
     21 C30         1.3290    1.8820   -1.0620 ce        1 CXU     -0.173000
     22 C31         2.7190    2.2020   -0.8400 ce        1 CXU     -0.039000
     23 C32         3.4340    2.0890    0.2960 cf        1 CXU     -0.085700
     24 C33         2.9630    1.6240    1.5280 ch        1 CXU     -0.015300
     25 C51         8.5180    4.2440    2.7820 c3        1 CXU     -0.093600
     26 C52         6.1910    3.7450    2.0520 c3        1 CXU     -0.093600
     27 O81         6.1670    6.1680    4.1970 o         1 CXU     -0.781800
     28 O82         7.9190    5.6770    5.5440 o         1 CXU     -0.781800
     29 H2          4.8300    1.6790    5.1560 hn        1 CXU      0.489300
     30 HN2         6.9710   -0.4010    5.0940 hx        1 CXU      0.134700
     31 H3          8.6200    1.3510    5.4060 h2        1 CXU      0.103700
     32 H6          8.0000    3.4620    6.0130 hn        1 CXU      0.433800
     33 HN7         5.5790    3.7120    4.5030 h1        1 CXU      0.042700
     34 H27         3.0590   -0.4940    7.7290 hc        1 CXU      0.096033
     35 H27A        1.2390   -0.6390    7.8070 hc        1 CXU      0.096033
     36 H27B        2.2270   -1.9740    7.0610 hc        1 CXU      0.096033
     37 H30         0.5720    2.0710    0.9530 h4        1 CXU      0.163000
     38 H31         1.0670    1.6770   -2.1170 ha        1 CXU      0.150000
     39 H32         3.2450    2.5720   -1.7430 ha        1 CXU      0.145000
     40 H33         4.5040    2.3840    0.2970 ha        1 CXU      0.161000
     41 H51         9.2500    4.1480    3.6200 hc        1 CXU      0.058533
     42 H51A        8.9760    3.8510    1.8430 hc        1 CXU      0.058533
     43 H51B        8.2920    5.3350    2.6530 hc        1 CXU      0.058533
     44 H52         5.8360    4.8080    2.1510 hc        1 CXU      0.058533
     45 H52A        5.3160    3.0640    2.1980 hc        1 CXU      0.058533
     46 H52B        6.6040    3.5890    1.0270 hc        1 CXU      0.058533
     47 H22         5.5480    1.1080    3.7310 hn        1 CXU      0.489300
     48 C27         2.1460   -0.8630    7.1890 c3        1 CXU     -0.177400
     49 H1          7.4030    0.6860    7.4940 h4        1 CXU      0.059200
@<TRIPOS>BOND
     1    1   20 1   
     2    2    3 2   
     3    2    4 1   
     4    2   49 1   
     5    4    5 1   
     6    4    6 1   
     7    4   30 1   
     8    5   12 1   
     9    5   29 1   
    10    5   47 1   
    11    6    7 1   
    12    6   10 1   
    13    6   31 1   
    14    7    8 1   
    15    8    9 1   
    16    8   25 1   
    17    8   26 1   
    18    9   10 1   
    19    9   11 1   
    20    9   33 1   
    21   10   32 1   
    22   11   27 1   
    23   11   28 1   
    24   12   13 2   
    25   12   14 1   
    26   14   15 2   
    27   14   18 1   
    28   15   16 1   
    29   15   48 1   
    30   16   17 1   
    31   17   18 2   
    32   18   19 1   
    33   19   24 3   
    34   20   21 2   
    35   20   37 1   
    36   21   22 1   
    37   21   38 1   
    38   22   23 2   
    39   22   39 1   
    40   23   24 1   
    41   23   40 1   
    42   25   41 1   
    43   25   42 1   
    44   25   43 1   
    45   26   44 1   
    46   26   45 1   
    47   26   46 1   
    48   34   48 1   
    49   35   48 1   
    50   36   48 1   
@<TRIPOS>SUBSTRUCTURE
     1 CXU         1 TEMP              0 ****  ****    0 ROOT
