@<TRIPOS>MOLECULE
CXU
   48    45     1     0     0
SMALL
bcc


@<TRIPOS>ATOM
      1 CL         -2.0970    1.0450   -3.5860 cl        1 CXU     -0.009000
      2 C1          1.4860   -0.4950   -0.2430 c1        1 CXU      0.193000
      3 O1          2.6930   -0.3410   -0.2820 o         1 CXU     -0.329000
      4 C2          0.6910    0.0900    0.8880 c2        1 CXU     -0.042000
      5 N2         -0.2110    1.0500    0.3830 n         1 CXU     -0.339000
      6 C3         -0.0950   -1.0310    1.5970 c3        1 CXU     -0.076000
      7 S4         -0.2500   -2.1100    0.7460 ss        1 CXU     -0.135000
      8 C5         -0.2190   -3.4560    1.7470 c3        1 CXU     -0.085000
      9 C6          0.3150   -2.9160    3.2600 c3        1 CXU     -0.131000
     10 N7          0.7920   -1.6000    2.9610 n3        1 CXU     -0.283000
     11 C8         -0.7370   -2.9530    4.1650 c2        1 CXU      0.348000
     12 C21         0.2420    2.3640    0.0880 c2        1 CXU      0.379000
     13 O21         1.2680    2.7810    0.5910 o         1 CXU     -0.397000
     14 C22        -0.5840    3.2680   -0.8060 c2        1 CXU     -0.213000
     15 C23        -1.4190    4.2750   -0.3850 c1        1 CXU      0.045000
     16 O24        -1.9340    4.8770   -1.4830 os        1 CXU     -0.069000
     17 N25        -1.4150    4.2420   -2.6050 n2        1 CXU     -0.018000
     18 C26        -0.5910    3.2580   -2.1850 c1        1 CXU     -0.031000
     19 C27        -1.6860    4.6670    1.0510 c2        1 CXU     -0.179000
     20 C28         0.2300    2.3470   -3.0710 c1        1 CXU     -0.044000
     21 C29        -0.3930    1.3460   -3.7990 c2        1 CXU     -0.030000
     22 C30         0.3440    0.5660   -4.6770 c1        1 CXU     -0.134000
     23 C31         1.7040    0.7880   -4.8260 c1        1 CXU     -0.110000
     24 C32         2.3270    1.7880   -4.0980 c1        1 CXU     -0.110000
     25 C33         1.5900    2.5680   -3.2200 c1        1 CXU     -0.092000
     26 C51         0.7390   -4.4890    1.1970 c3        1 CXU     -0.202000
     27 C52        -1.6040   -4.0450    1.8670 c3        1 CXU     -0.202000
     28 O81        -0.8690   -3.9390    4.9380 o         1 CXU     -0.553500
     29 O82        -1.5630   -2.0050    4.2090 o         1 CXU     -0.553500
     30 H1          1.0360   -1.0040   -0.9450 ha        1 CXU      0.133000
     31 H2          1.2980    0.5160    1.5270 h4        1 CXU      0.153000
     32 HN2        -1.0860    0.8310    0.2560 hn        1 CXU      0.246000
     33 H3         -0.9700   -0.7000    1.8800 h2        1 CXU      0.109000
     34 H6          0.9930   -3.4450    3.7290 h1        1 CXU      0.097000
     35 HN7         0.6380   -1.0510    3.6750 hn        1 CXU      0.200000
     36 H27        -1.9220    5.6170    1.0920 ha        1 CXU      0.116333
     37 H27A       -0.8820    4.5060    1.5880 ha        1 CXU      0.116333
     38 H27B       -2.4270    4.1310    1.4040 ha        1 CXU      0.116333
     39 H30        -0.0950   -0.1390   -5.1900 ha        1 CXU      0.144000
     40 H31         2.2230    0.2380   -5.4440 ha        1 CXU      0.143500
     41 H32         3.2850    1.9440   -4.2030 ha        1 CXU      0.143500
     42 H33         2.0290    3.2730   -2.7070 ha        1 CXU      0.167000
     43 H51         0.4410   -4.7700    0.3060 hc        1 CXU      0.085833
     44 H51A        1.6370   -4.1020    1.1340 hc        1 CXU      0.085833
     45 H51B        0.7600   -5.2670    1.7950 hc        1 CXU      0.085833
     46 H52        -1.9130   -4.3370    0.9830 hc        1 CXU      0.085833
     47 H52A       -2.2190   -3.3670    2.2200 hc        1 CXU      0.085833
     48 H52B       -1.5810   -4.8140    2.4750 hc        1 CXU      0.085833
@<TRIPOS>BOND
     1    1   21 1   
     2    2    3 1   
     3    2   30 1   
     4    4    5 1   
     5    4    6 1   
     6    4   31 1   
     7    5   12 1   
     8    5   32 1   
     9    6    7 1   
    10    6   10 1   
    11    6   33 1   
    12    7    8 1   
    13    8    9 1   
    14    8   26 1   
    15    8   27 1   
    16    9   10 1   
    17    9   11 1   
    18    9   34 1   
    19   10   35 1   
    20   11   28 1   
    21   11   29 1   
    22   12   13 1   
    23   12   14 1   
    24   14   15 1   
    25   14   18 1   
    26   15   16 1   
    27   16   17 1   
    28   17   18 1   
    29   19   36 1   
    30   19   37 1   
    31   19   38 1   
    32   20   21 1   
    33   20   25 1   
    34   21   22 1   
    35   22   39 1   
    36   23   24 1   
    37   23   40 1   
    38   24   41 1   
    39   25   42 1   
    40   26   43 1   
    41   26   44 1   
    42   26   45 1   
    43   27   46 1   
    44   27   47 1   
    45   27   48 1   
@<TRIPOS>SUBSTRUCTURE
     1 CXU         1 TEMP              0 ****  ****    0 ROOT
