@<TRIPOS>MOLECULE
CXU
   49    50     1     0     0
SMALL
bcc


@<TRIPOS>ATOM
      1 CL         -1.2790    1.5940   -0.3150 cl        1 CXU     -0.087400
      2 C1          6.4930    0.5080    6.9400 c         1 CXU      0.596900
      3 O1          5.4150    0.3530    7.5080 o         1 CXU     -0.525100
      4 C2          6.6130    0.5480    5.4220 c3        1 CXU     -0.011500
      5 N2          5.3110    0.8160    4.7320 n4        1 CXU     -0.671800
      6 C3          7.6570    1.6300    5.0060 c3        1 CXU      0.281600
      7 S4          7.6330    1.6430    3.1820 ss        1 CXU     -0.490200
      8 C5          7.2700    3.4520    3.0870 c3        1 CXU      0.115100
      9 C6          6.7470    3.7910    4.4960 c3        1 CXU     -0.025500
     10 N7          7.2990    2.9220    5.5210 n3        1 CXU     -0.817200
     11 C8          7.0270    5.3400    4.7810 c         1 CXU      0.945600
     12 C21         4.3590   -0.3450    4.7760 c         1 CXU      0.630700
     13 O21         4.8330   -1.4730    4.7240 o         1 CXU     -0.432100
     14 C22         2.9670    0.0330    4.8850 cc        1 CXU     -0.469200
     15 C23         2.0840   -0.2430    5.9250 cd        1 CXU      0.408000
     16 O24         0.8380    0.2840    5.5540 os        1 CXU     -0.088100
     17 N25         0.8960    0.8500    4.3620 nd        1 CXU     -0.311300
     18 C26         2.1590    0.7470    3.8840 cc        1 CXU      0.510300
     19 C28         2.6160    1.2100    2.6510 cg        1 CXU     -0.303000
     20 C29         0.3500    1.9150   -0.0160 c2        1 CXU     -0.023600
     21 C30         1.2750    1.9320   -0.9870 ce        1 CXU     -0.173000
     22 C31         2.6750    2.2180   -0.7890 ce        1 CXU     -0.039000
     23 C32         3.4090    2.0790    0.3330 cf        1 CXU     -0.086700
     24 C33         2.9510    1.6140    1.5700 ch        1 CXU     -0.015300
     25 C51         8.5500    4.1730    2.7510 c3        1 CXU     -0.093600
     26 C52         6.2080    3.6980    2.0500 c3        1 CXU     -0.093600
     27 O81         6.2340    6.1160    4.2010 o         1 CXU     -0.781800
     28 O82         7.9990    5.6050    5.5240 o         1 CXU     -0.781800
     29 H2          4.8680    1.6380    5.1680 hn        1 CXU      0.489300
     30 HN2         6.9890   -0.4630    5.0730 hx        1 CXU      0.134700
     31 H3          8.6570    1.2730    5.3670 h2        1 CXU      0.103700
     32 H6          8.0650    3.3880    5.9870 hn        1 CXU      0.433800
     33 HN7         5.6270    3.6650    4.5090 h1        1 CXU      0.042700
     34 H27         3.1110   -0.5300    7.7600 hc        1 CXU      0.096033
     35 H27A        2.2590   -2.0000    7.0970 hc        1 CXU      0.096033
     36 H27B        1.2910   -0.6600    7.8620 hc        1 CXU      0.096033
     37 H30         0.5600    2.1180    1.0440 h4        1 CXU      0.163000
     38 H31         0.9880    1.7430   -2.0390 ha        1 CXU      0.150000
     39 H32         3.1930    2.5850   -1.6980 ha        1 CXU      0.145000
     40 H33         4.4850    2.3500    0.3150 ha        1 CXU      0.160000
     41 H51         9.2910    4.0670    3.5810 hc        1 CXU      0.058533
     42 H51A        8.9910    3.7780    1.8060 hc        1 CXU      0.058533
     43 H51B        8.3320    5.2660    2.6290 hc        1 CXU      0.058533
     44 H52         6.6070    3.5410    1.0200 hc        1 CXU      0.058533
     45 H52A        5.8640    4.7640    2.1560 hc        1 CXU      0.058533
     46 H52B        5.3290    3.0250    2.2060 hc        1 CXU      0.058533
     47 H22         5.5610    1.0630    3.7320 hn        1 CXU      0.489300
     48 C27         2.1880   -0.8890    7.2310 c3        1 CXU     -0.177400
     49 H1          7.4630    0.6150    7.4700 h4        1 CXU      0.059200
@<TRIPOS>BOND
     1    1   20 1   
     2    2    3 2   
     3    2    4 1   
     4    2   49 1   
     5    4    5 1   
     6    4    6 1   
     7    4   30 1   
     8    5   12 1   
     9    5   29 1   
    10    5   47 1   
    11    6    7 1   
    12    6   10 1   
    13    6   31 1   
    14    7    8 1   
    15    8    9 1   
    16    8   25 1   
    17    8   26 1   
    18    9   10 1   
    19    9   11 1   
    20    9   33 1   
    21   10   32 1   
    22   11   27 1   
    23   11   28 1   
    24   12   13 2   
    25   12   14 1   
    26   14   15 2   
    27   14   18 1   
    28   15   16 1   
    29   15   48 1   
    30   16   17 1   
    31   17   18 2   
    32   18   19 1   
    33   19   24 3   
    34   20   21 2   
    35   20   37 1   
    36   21   22 1   
    37   21   38 1   
    38   22   23 2   
    39   22   39 1   
    40   23   24 1   
    41   23   40 1   
    42   25   41 1   
    43   25   42 1   
    44   25   43 1   
    45   26   44 1   
    46   26   45 1   
    47   26   46 1   
    48   34   48 1   
    49   35   48 1   
    50   36   48 1   
@<TRIPOS>SUBSTRUCTURE
     1 CXU         1 TEMP              0 ****  ****    0 ROOT
