@<TRIPOS>MOLECULE
CXU
   48    50     1     0     0
SMALL
bcc


@<TRIPOS>ATOM
      1 CL         -4.5410   -1.9040   -1.7870 cl        1 CXU     -0.081400
      2 C1          1.9640    2.2090    1.1740 c         1 CXU      0.570900
      3 O1          1.2760    3.2220    1.0290 o         1 CXU     -0.558100
      4 C2          1.4630    0.7850    0.9240 c3        1 CXU     -0.008300
      5 N2          0.1730    0.7330    0.2810 n         1 CXU     -0.531900
      6 C3          2.5290    0.0300    0.1040 c3        1 CXU      0.291600
      7 S4          3.1010    1.1640   -1.2520 ss        1 CXU     -0.552200
      8 C5          4.7890    0.4610   -1.2340 c3        1 CXU      0.092100
      9 C6          4.7730   -0.6370   -0.1270 c3        1 CXU      0.012500
     10 N7          3.7000   -0.3870    0.8340 n3        1 CXU     -0.738200
     11 C8          4.6740   -2.0750   -0.7720 c         1 CXU      0.941600
     12 C21        -1.0020    0.7540    1.0030 c         1 CXU      0.715700
     13 O21        -1.0290    0.5460    2.2340 o         1 CXU     -0.614100
     14 C22        -2.2230    1.0560    0.2330 cc        1 CXU     -0.365200
     15 C23        -2.4700    2.2170   -0.4830 cd        1 CXU      0.310000
     16 O24        -3.7820    2.1210   -1.0000 os        1 CXU     -0.121100
     17 N25        -4.3280    0.9730   -0.6530 nd        1 CXU     -0.353300
     18 C26        -3.4500    0.2640    0.0930 cc        1 CXU      0.414800
     19 C28        -3.6980   -1.0590    0.6490 ca        1 CXU     -0.133500
     20 C29        -4.2070   -2.1090   -0.1340 ca        1 CXU      0.050400
     21 C30        -4.4350   -3.3670    0.4360 ca        1 CXU     -0.139000
     22 C31        -4.1610   -3.5810    1.7840 ca        1 CXU     -0.110000
     23 C32        -3.6540   -2.5440    2.5670 ca        1 CXU     -0.136000
     24 C33        -3.4220   -1.2920    2.0050 ca        1 CXU     -0.084000
     25 C51         5.7420    1.5750   -0.8730 c3        1 CXU     -0.083600
     26 C52         5.1110   -0.1120   -2.5890 c3        1 CXU     -0.083600
     27 O81         5.7650   -2.6980   -0.8420 o         1 CXU     -0.818300
     28 O82         3.5570   -2.4870   -1.1770 o         1 CXU     -0.818300
     29 H2          1.3580    0.2910    1.9430 h1        1 CXU      0.117700
     30 HN2         0.1530    0.9240   -0.6950 hn        1 CXU      0.328500
     31 H3          2.1190   -0.8960   -0.4010 h2        1 CXU      0.165700
     32 H6          5.7540   -0.6070    0.4260 h1        1 CXU      0.067700
     33 HN7         3.9850    0.3270    1.4850 hn        1 CXU      0.320800
     34 H27        -1.4470    3.4570   -1.8700 hc        1 CXU      0.080033
     35 H27A       -2.3280    4.3380   -0.5490 hc        1 CXU      0.080033
     36 H27B       -0.7710    3.4580   -0.1750 hc        1 CXU      0.080033
     37 H30        -4.8240   -4.1880   -0.1850 ha        1 CXU      0.144000
     38 H31        -4.3380   -4.5720    2.2270 ha        1 CXU      0.132000
     39 H32        -3.4240   -2.7150    3.6290 ha        1 CXU      0.138000
     40 H33        -2.9940   -0.4780    2.6160 ha        1 CXU      0.175000
     41 H51         5.5220    1.9680    0.1490 hc        1 CXU      0.042367
     42 H51A        6.7930    1.1940   -0.8890 hc        1 CXU      0.042367
     43 H51B        5.6600    2.4170   -1.6030 hc        1 CXU      0.042367
     44 H52         5.2220    0.7030   -3.3450 hc        1 CXU      0.042367
     45 H52A        6.0640   -0.6960   -2.5310 hc        1 CXU      0.042367
     46 H52B        4.2990   -0.8110   -2.9140 hc        1 CXU      0.042367
     47 C27        -1.7150    3.4310   -0.7820 c3        1 CXU     -0.162400
     48 H1          3.0100    2.2660    1.5470 h4        1 CXU      0.006200
@<TRIPOS>BOND
     1    1   20 1   
     2    2    3 2   
     3    2    4 1   
     4    2   48 1   
     5    4    5 1   
     6    4    6 1   
     7    4   29 1   
     8    5   12 1   
     9    5   30 1   
    10    6    7 1   
    11    6   10 1   
    12    6   31 1   
    13    7    8 1   
    14    8    9 1   
    15    8   25 1   
    16    8   26 1   
    17    9   10 1   
    18    9   11 1   
    19    9   32 1   
    20   10   33 1   
    21   11   27 1   
    22   11   28 1   
    23   12   13 2   
    24   12   14 1   
    25   14   15 2   
    26   14   18 1   
    27   15   16 1   
    28   15   47 1   
    29   16   17 1   
    30   17   18 2   
    31   18   19 1   
    32   19   20 ar  
    33   19   24 ar  
    34   20   21 ar  
    35   21   22 ar  
    36   21   37 1   
    37   22   23 ar  
    38   22   38 1   
    39   23   24 ar  
    40   23   39 1   
    41   24   40 1   
    42   25   41 1   
    43   25   42 1   
    44   25   43 1   
    45   26   44 1   
    46   26   45 1   
    47   26   46 1   
    48   34   47 1   
    49   35   47 1   
    50   36   47 1   
@<TRIPOS>SUBSTRUCTURE
     1 CXU         1 TEMP              0 ****  ****    0 ROOT
