@<TRIPOS>MOLECULE
CXV
   48    50     1     0     0
SMALL
bcc


@<TRIPOS>ATOM
      1 CL         -3.7450   -2.7710    1.6220 cl        1 CXV     -0.083400
      2 C1          1.3170    2.9620   -1.5600 c         1 CXV      0.563900
      3 O1          0.4490    3.7700   -1.2260 o         1 CXV     -0.551100
      4 C2          1.2390    1.4590   -1.3030 c3        1 CXV     -0.014300
      5 N2          0.1040    1.0440   -0.5150 n         1 CXV     -0.539900
      6 C3          2.5740    1.0320   -0.6640 c3        1 CXV      0.300600
      7 S4          2.6180    1.5470    1.1290 ss        1 CXV     -0.563200
      8 C5          3.7030    0.1430    1.5750 c3        1 CXV      0.095100
      9 C6          3.9420   -0.6400    0.2480 c3        1 CXV      0.016500
     10 N7          2.8650   -0.3770   -0.7030 n3        1 CXV     -0.746200
     11 C8          5.3610   -0.2950   -0.3490 c         1 CXV      0.940600
     12 C21        -1.1440    0.8590   -1.0720 c         1 CXV      0.710700
     13 O21        -1.3120    0.7380   -2.3030 o         1 CXV     -0.615100
     14 C22        -2.2680    0.8200   -0.1180 cc        1 CXV     -0.366200
     15 C23        -2.5700    1.7940    0.8220 cd        1 CXV      0.313000
     16 O24        -3.7580    1.3970    1.4740 os        1 CXV     -0.120100
     17 N25        -4.1770    0.2420    0.9970 nd        1 CXV     -0.354300
     18 C26        -3.3300   -0.1800    0.0310 cc        1 CXV      0.412800
     19 C28        -3.4670   -1.4230   -0.7160 ca        1 CXV     -0.131500
     20 C29        -3.6750   -2.6550   -0.0730 ca        1 CXV      0.047400
     21 C30        -3.8140   -3.8290   -0.8220 ca        1 CXV     -0.142000
     22 C31        -3.7480   -3.7790   -2.2120 ca        1 CXV     -0.112000
     23 C32        -3.5370   -2.5610   -2.8580 ca        1 CXV     -0.137000
     24 C33        -3.3960   -1.3910   -2.1170 ca        1 CXV     -0.081000
     25 C51         2.9630   -0.7090    2.5780 c3        1 CXV     -0.084100
     26 C52         4.9880    0.6720    2.1550 c3        1 CXV     -0.084100
     27 O81         6.2610   -1.1420   -0.1090 o         1 CXV     -0.821800
     28 O82         5.5100    0.7740   -0.9970 o         1 CXV     -0.821800
     29 H2          1.1530    0.9710   -2.3260 h1        1 CXV      0.118700
     30 HN2         0.1920    1.1790    0.4720 hn        1 CXV      0.335500
     31 H3          3.4460    1.5600   -1.1560 h2        1 CXV      0.157700
     32 H6          3.9530   -1.7440    0.4750 h1        1 CXV      0.069700
     33 HN7         2.0520   -0.9210   -0.4710 hn        1 CXV      0.340800
     34 H27        -2.7430    3.8170    1.4680 hc        1 CXV      0.081367
     35 H27A       -1.3420    2.8890    2.1610 hc        1 CXV      0.081367
     36 H27B       -1.2880    3.4420    0.4260 hc        1 CXV      0.081367
     37 H30        -3.9710   -4.7910   -0.3120 ha        1 CXV      0.143000
     38 H31        -3.8550   -4.7040   -2.7980 ha        1 CXV      0.132000
     39 H32        -3.4710   -2.5210   -3.9550 ha        1 CXV      0.138000
     40 H33        -3.2000   -0.4300   -2.6250 ha        1 CXV      0.177000
     41 H51         2.0350   -1.1360    2.1270 hc        1 CXV      0.042533
     42 H51A        3.6160   -1.5530    2.9120 hc        1 CXV      0.042533
     43 H51B        2.6780   -0.1070    3.4750 hc        1 CXV      0.042533
     44 H52         4.8090    1.1350    3.1550 hc        1 CXV      0.042533
     45 H52A        5.7230   -0.1660    2.2610 hc        1 CXV      0.042533
     46 H52B        5.4350    1.4350    1.4690 hc        1 CXV      0.042533
     47 C27        -1.9580    3.0540    1.2390 c3        1 CXV     -0.164400
     48 H1          2.2360    3.2750   -2.1040 h4        1 CXV      0.021200
@<TRIPOS>BOND
     1    1   20 1   
     2    2    3 2   
     3    2    4 1   
     4    2   48 1   
     5    4    5 1   
     6    4    6 1   
     7    4   29 1   
     8    5   12 1   
     9    5   30 1   
    10    6    7 1   
    11    6   10 1   
    12    6   31 1   
    13    7    8 1   
    14    8    9 1   
    15    8   25 1   
    16    8   26 1   
    17    9   10 1   
    18    9   11 1   
    19    9   32 1   
    20   10   33 1   
    21   11   27 1   
    22   11   28 1   
    23   12   13 2   
    24   12   14 1   
    25   14   15 2   
    26   14   18 1   
    27   15   16 1   
    28   15   47 1   
    29   16   17 1   
    30   17   18 2   
    31   18   19 1   
    32   19   20 ar  
    33   19   24 ar  
    34   20   21 ar  
    35   21   22 ar  
    36   21   37 1   
    37   22   23 ar  
    38   22   38 1   
    39   23   24 ar  
    40   23   39 1   
    41   24   40 1   
    42   25   41 1   
    43   25   42 1   
    44   25   43 1   
    45   26   44 1   
    46   26   45 1   
    47   26   46 1   
    48   34   47 1   
    49   35   47 1   
    50   36   47 1   
@<TRIPOS>SUBSTRUCTURE
     1 CXV         1 TEMP              0 ****  ****    0 ROOT
