@<TRIPOS>MOLECULE
CXV
   49    48     1     0     0
SMALL
bcc


@<TRIPOS>ATOM
      1 CL          1.6760    3.9170   -1.3950 cl        1 CXV     -0.109400
      2 C1          3.5700   -5.5690    4.9490 c         1 CXV      0.549900
      3 O1          3.4640   -4.8830    5.9630 o         1 CXV     -0.515100
      4 C2          3.1130   -5.1210    3.5620 c3        1 CXV     -0.011300
      5 N2          2.4950   -3.8250    3.5470 n         1 CXV     -0.546900
      6 C3          2.2040   -6.2380    2.9790 c3        1 CXV      0.261600
      7 S4          0.6080   -6.3160    3.8870 ss        1 CXV     -0.298700
      8 C5         -0.3150   -5.8300    2.5380 c2        1 CXV     -0.041600
      9 C6          0.5820   -5.5480    1.3570 c3        1 CXV      0.182000
     10 N7          1.9280   -6.0570    1.5680 n3        1 CXV     -0.790200
     11 C8          5.4560   -4.1400    0.4270 c1        1 CXV      0.917000
     12 C21         3.1170   -2.7180    2.9940 c         1 CXV      0.729700
     13 O21         4.1340   -2.8350    2.2810 o         1 CXV     -0.616100
     14 C22         2.4960   -1.4210    3.2930 cc        1 CXV     -0.373200
     15 C23         1.8840   -1.0030    4.4650 cd        1 CXV      0.321000
     16 O24         1.4850    0.3370    4.2760 os        1 CXV     -0.108100
     17 N25         1.8080    0.7540    3.0680 nd        1 CXV     -0.343300
     18 C26         2.4310   -0.2500    2.4050 cc        1 CXV      0.500300
     19 C28         2.9280   -0.2000    1.1030 cg        1 CXV     -0.225000
     20 C29         2.5450    2.4720   -1.2640 c2        1 CXV     -0.038600
     21 C30         3.0490    1.8370   -2.3320 ce        1 CXV     -0.155000
     22 C31         3.8070    0.6100   -2.2960 ce        1 CXV     -0.090000
     23 C32         3.9480   -0.2670   -1.2850 cf        1 CXV     -0.038700
     24 C33         3.3800   -0.1890   -0.0100 ch        1 CXV     -0.070300
     25 C51         4.2390   -8.3420    0.8080 c3        1 CXV     -0.119800
     26 C52        -1.6390   -5.6950    2.5040 c2        1 CXV     -0.197000
     27 O81         5.3760   -3.2760   -0.3870 o         1 CXV     -0.458500
     28 O82         5.5620   -5.0370    1.2030 o         1 CXV     -0.458500
     29 H2          1.7110   -3.7010    4.1470 hn        1 CXV      0.325500
     30 HN2         4.0510   -5.0760    2.9140 h1        1 CXV      0.138700
     31 H3          2.7320   -7.2160    3.1580 h2        1 CXV      0.082700
     32 H6          2.0720   -6.9210    1.0740 hn        1 CXV      0.377800
     33 HN7         0.1450   -5.9800    0.4150 h1        1 CXV      0.075200
     34 H27         2.3780   -2.3610    6.0290 hc        1 CXV      0.081700
     35 H27A        0.5970   -2.1140    5.7350 hc        1 CXV      0.081700
     36 H27B        1.5630   -0.8180    6.5630 hc        1 CXV      0.081700
     37 H30         2.6460    2.1280   -0.2250 h4        1 CXV      0.167000
     38 H31         2.9090    2.2590   -3.3450 ha        1 CXV      0.139000
     39 H32         4.3250    0.3780   -3.2470 ha        1 CXV      0.132000
     40 H33         4.5730   -1.1750   -1.4290 ha        1 CXV      0.164000
     41 H51         4.5740   -7.3130    1.0740 hc        1 CXV      0.030450
     42 H51A        5.1280   -8.9930    0.6610 hc        1 CXV      0.030450
     43 H51B        3.6120   -8.7550    1.6290 hc        1 CXV      0.030450
     44 H52         3.6470   -8.3090   -0.1320 hc        1 CXV      0.030450
     45 H52A       -2.2780   -5.8840    3.3760 ha        1 CXV      0.127500
     46 H52B       -2.1680   -5.3820    1.5930 ha        1 CXV      0.127500
     47 H22         0.6590   -4.4300    1.2250 h1        1 CXV      0.075200
     48 C27         1.5940   -1.6040    5.7660 c3        1 CXV     -0.164400
     49 H1          4.0450   -6.5760    4.9630 h4        1 CXV      0.009200
@<TRIPOS>BOND
     1    1   20 1   
     2    2    3 2   
     3    2    4 1   
     4    2   49 1   
     5    4    5 1   
     6    4    6 1   
     7    4   30 1   
     8    5   12 1   
     9    5   29 1   
    10    6    7 1   
    11    6   10 1   
    12    6   31 1   
    13    7    8 1   
    14    8    9 1   
    15    8   26 2   
    16    9   10 1   
    17    9   33 1   
    18    9   47 1   
    19   10   32 1   
    20   11   27 2   
    21   11   28 2   
    22   12   13 2   
    23   12   14 1   
    24   14   15 2   
    25   14   18 1   
    26   15   16 1   
    27   15   48 1   
    28   16   17 1   
    29   17   18 2   
    30   18   19 1   
    31   19   24 3   
    32   20   21 2   
    33   20   37 1   
    34   21   22 1   
    35   21   38 1   
    36   22   23 2   
    37   22   39 1   
    38   23   24 1   
    39   23   40 1   
    40   25   41 1   
    41   25   42 1   
    42   25   43 1   
    43   25   44 1   
    44   26   45 1   
    45   26   46 1   
    46   34   48 1   
    47   35   48 1   
    48   36   48 1   
@<TRIPOS>SUBSTRUCTURE
     1 CXV         1 TEMP              0 ****  ****    0 ROOT
