@<TRIPOS>MOLECULE
CXV
   48    45     1     0     0
SMALL
bcc


@<TRIPOS>ATOM
      1 CL         -1.0350    4.1940   -2.7970 cl        1 CXV     -0.003000
      2 C1         -0.1940   -0.9490    2.5770 c1        1 CXV      0.187000
      3 O1         -1.3560   -0.9870    2.9380 o         1 CXV     -0.324000
      4 C2          0.1370   -0.7780    1.1120 c2        1 CXV     -0.043000
      5 N2         -0.4100    0.4540    0.6400 n         1 CXV     -0.334000
      6 C3         -0.4620   -1.9340    0.3160 c3        1 CXV     -0.083000
      7 S4          0.4370   -2.3560   -0.6690 ss        1 CXV     -0.127000
      8 C5          0.1750   -4.0120   -0.8140 c3        1 CXV     -0.091000
      9 C6         -0.7950   -4.4630    0.5100 c3        1 CXV     -0.133000
     10 N7         -0.7370   -3.2920    1.3500 n3        1 CXV     -0.283000
     11 C8         -2.1340   -4.8690    0.1540 c2        1 CXV      0.350000
     12 C21         0.2640    1.6800    0.9040 c2        1 CXV      0.380000
     13 O21         1.4510    1.6740    1.2000 o         1 CXV     -0.379000
     14 C22        -0.5230    2.9950    0.9260 c2        1 CXV     -0.219000
     15 C23        -1.5860    3.2950    1.7660 c1        1 CXV      0.028000
     16 O24        -1.9710    4.5680    1.5160 os        1 CXV     -0.061000
     17 N25        -1.1390    5.0850    0.5030 n2        1 CXV     -0.020000
     18 C26        -0.2610    4.1200    0.1490 c1        1 CXV     -0.023000
     19 C27        -2.1660    2.3800    2.8360 c2        1 CXV     -0.193000
     20 C28         0.8910    4.2710   -0.8780 c1        1 CXV     -0.022000
     21 C29         0.6000    4.4080   -2.2340 c2        1 CXV     -0.031000
     22 C30         1.6360    4.6080   -3.1550 c1        1 CXV     -0.143000
     23 C31         2.9510    4.6720   -2.7190 c1        1 CXV     -0.125500
     24 C32         3.2420    4.5350   -1.3590 c1        1 CXV     -0.125500
     25 C33         2.2110    4.3350   -0.4410 c1        1 CXV     -0.077000
     26 C51         1.4870   -4.7540   -0.7730 c3        1 CXV     -0.201500
     27 C52        -0.5530   -4.3060   -2.1200 c3        1 CXV     -0.201500
     28 O81        -3.0130   -3.9920   -0.1190 o         1 CXV     -0.552500
     29 O82        -2.4150   -6.0900    0.0580 o         1 CXV     -0.552500
     30 H1          0.5190   -1.0800    3.2220 ha        1 CXV      0.132000
     31 H2          1.1320   -0.7700    0.9930 h4        1 CXV      0.149000
     32 HN2        -1.1460    0.4470    0.0990 hn        1 CXV      0.237000
     33 H3         -1.2930   -1.6580   -0.0920 h2        1 CXV      0.115000
     34 H6         -0.4500   -5.2740    0.9710 h1        1 CXV      0.100000
     35 HN7        -1.5350   -3.1880    1.7830 hn        1 CXV      0.198000
     36 H27        -2.7270    1.6920    2.4110 ha        1 CXV      0.123667
     37 H27A       -1.4300    1.9450    3.3330 ha        1 CXV      0.123667
     38 H27B       -2.7010    2.8980    3.4430 ha        1 CXV      0.123667
     39 H30         1.4330    4.7160   -4.0960 ha        1 CXV      0.142000
     40 H31         3.6880    4.8150   -3.3750 ha        1 CXV      0.133500
     41 H32         4.1760    4.5800   -1.0500 ha        1 CXV      0.133500
     42 H33         2.4130    4.2400    0.5000 ha        1 CXV      0.176000
     43 H51         2.1440   -4.2900   -1.3380 hc        1 CXV      0.086167
     44 H51A        1.8090   -4.7860    0.1320 hc        1 CXV      0.086167
     45 H51B        1.3560   -5.6750   -1.1080 hc        1 CXV      0.086167
     46 H52         0.0050   -4.0120   -2.8820 hc        1 CXV      0.086167
     47 H52A       -0.7230   -5.2660   -2.1910 hc        1 CXV      0.086167
     48 H52B       -1.4020   -3.8240   -2.1340 hc        1 CXV      0.086167
@<TRIPOS>BOND
     1    1   21 1   
     2    2    3 1   
     3    2   30 1   
     4    4    5 1   
     5    4    6 1   
     6    4   31 1   
     7    5   12 1   
     8    5   32 1   
     9    6    7 1   
    10    6   10 1   
    11    6   33 1   
    12    7    8 1   
    13    8    9 1   
    14    8   26 1   
    15    8   27 1   
    16    9   10 1   
    17    9   11 1   
    18    9   34 1   
    19   10   35 1   
    20   11   28 1   
    21   11   29 1   
    22   12   13 1   
    23   12   14 1   
    24   14   15 1   
    25   14   18 1   
    26   15   16 1   
    27   16   17 1   
    28   17   18 1   
    29   19   36 1   
    30   19   37 1   
    31   19   38 1   
    32   20   21 1   
    33   20   25 1   
    34   21   22 1   
    35   22   39 1   
    36   23   24 1   
    37   23   40 1   
    38   24   41 1   
    39   25   42 1   
    40   26   43 1   
    41   26   44 1   
    42   26   45 1   
    43   27   46 1   
    44   27   47 1   
    45   27   48 1   
@<TRIPOS>SUBSTRUCTURE
     1 CXV         1 TEMP              0 ****  ****    0 ROOT
