@<TRIPOS>MOLECULE
CXW
   55    57     1     0     0
SMALL
bcc


@<TRIPOS>ATOM
      1 O22         0.8110    0.3090   -0.1980 oh        1 CXW     -0.549100
      2 C22         2.1220   -0.0250   -0.4630 ca        1 CXW      0.140100
      3 C23         3.0660   -0.2380    0.5500 ca        1 CXW     -0.192000
      4 C24         4.3810   -0.5330    0.2000 ca        1 CXW     -0.045000
      5 C25         4.7550   -0.6110   -1.1450 ca        1 CXW     -0.144000
      6 C26         3.8130   -0.4020   -2.1480 ca        1 CXW     -0.058000
      7 C21         2.4830   -0.1150   -1.8210 ca        1 CXW     -0.211300
      8 C13         1.4510    0.0270   -2.8840 c3        1 CXW      0.192100
      9 N12         0.8520    1.4010   -2.8870 ny        1 CXW     -0.763000
     10 C11        -0.2120    1.5490   -3.9200 c3        1 CXW      0.102800
     11 C10        -0.6960    2.9990   -4.0500 c3        1 CXW      0.107400
     12 O09         0.4730    3.7860   -4.2290 os        1 CXW     -0.462600
     13 C4'         0.2110    5.1700   -4.5010 c3        1 CXW      0.114100
     14 C5'        -0.0240    5.3850   -6.0180 c3        1 CXW      0.125800
     15 N1'         1.1830    5.9370   -6.6120 n7        1 CXW     -0.783200
     16 C2'         2.0140    6.4700   -5.5380 c3        1 CXW      0.142800
     17 C3'         1.4890    5.9730   -4.1680 c3        1 CXW     -0.085700
     18 C08         2.5130    5.1600   -3.4030 c3        1 CXW     -0.110700
     19 C06         3.6700    6.0010   -2.9330 ca        1 CXW      0.435600
     20 C05         3.4350    6.9640   -1.9360 ca        1 CXW     -0.300300
     21 C04         4.5090    7.7420   -1.4800 ca        1 CXW      0.006700
     22 C07         4.2980    8.7850   -0.4510 c3        1 CXW     -0.066800
     23 N01         4.8830    5.7730   -3.4830 nb        1 CXW     -0.742000
     24 C02         5.9400    6.5170   -3.0220 ca        1 CXW      0.648200
     25 N02         7.2250    6.2290   -3.4910 nv        1 CXW     -0.930500
     26 C03         5.7730    7.5250   -2.0220 ca        1 CXW     -0.297300
     27 H1          0.6500    0.2000    0.7520 ho        1 CXW      0.457000
     28 H2          2.7680   -0.1750    1.6080 ha        1 CXW      0.159000
     29 H3          5.1310   -0.7040    0.9900 ha        1 CXW      0.163000
     30 H4          5.7990   -0.8420   -1.4110 ha        1 CXW      0.164000
     31 H5          4.1150   -0.4740   -3.2060 ha        1 CXW      0.149000
     32 H6          1.8900   -0.1640   -3.9040 hx        1 CXW      0.105200
     33 H7          0.6090   -0.7030   -2.6980 hx        1 CXW      0.105200
     34 H8          1.5860    2.1030   -3.0690 hn        1 CXW      0.466300
     35 H10        -1.0800    0.8880   -3.6450 hx        1 CXW      0.108200
     36 H11         0.2170    1.2100   -4.9070 hx        1 CXW      0.108200
     37 H12        -1.3730    3.0730   -4.9430 h1        1 CXW      0.069700
     38 H13        -1.2470    3.3330   -3.1310 h1        1 CXW      0.069700
     39 H14        -0.6640    5.5140   -3.8920 h1        1 CXW      0.062700
     40 H15        -0.8470    6.1400   -6.1550 h1        1 CXW      0.061700
     41 H16        -0.3340    4.4270   -6.5120 h1        1 CXW      0.061700
     42 H17         1.6790    5.2300   -7.1230 hn        1 CXW      0.357800
     43 H19         1.9360    7.5920   -5.5800 h1        1 CXW      0.071200
     44 H20         3.0930    6.1920   -5.6750 h1        1 CXW      0.071200
     45 H21         1.1900    6.8610   -3.5480 hc        1 CXW      0.076700
     46 H22         2.8640    4.3090   -4.0450 hc        1 CXW      0.045200
     47 H23         2.0210    4.7160   -2.4950 hc        1 CXW      0.045200
     48 H24         2.4280    7.1070   -1.5250 ha        1 CXW      0.138000
     49 H25         5.2250    8.9500    0.1510 hc        1 CXW      0.055367
     50 H26         4.0250    9.7520   -0.9460 hc        1 CXW      0.055367
     51 H27         3.4690    8.5000    0.2420 hc        1 CXW      0.055367
     52 H28         7.2890    5.6860   -4.3240 hn        1 CXW      0.412800
     53 H29         7.8630    6.9900   -3.4410 hn        1 CXW      0.412800
     54 H30         6.6340    8.1150   -1.6770 ha        1 CXW      0.151000
     55 H122        0.4600    1.5950   -1.9550 hn        1 CXW      0.466300
@<TRIPOS>BOND
     1    1    2 1   
     2    1   27 1   
     3    2    3 ar  
     4    2    7 ar  
     5    3    4 ar  
     6    3   28 1   
     7    4    5 ar  
     8    4   29 1   
     9    5    6 ar  
    10    5   30 1   
    11    6    7 ar  
    12    6   31 1   
    13    7    8 1   
    14    8    9 1   
    15    8   32 1   
    16    8   33 1   
    17    9   10 1   
    18    9   34 1   
    19    9   55 1   
    20   10   11 1   
    21   10   35 1   
    22   10   36 1   
    23   11   12 1   
    24   11   37 1   
    25   11   38 1   
    26   12   13 1   
    27   13   14 1   
    28   13   17 1   
    29   13   39 1   
    30   14   15 1   
    31   14   40 1   
    32   14   41 1   
    33   15   16 1   
    34   15   42 1   
    35   16   17 1   
    36   16   43 1   
    37   16   44 1   
    38   17   18 1   
    39   17   45 1   
    40   18   19 1   
    41   18   46 1   
    42   18   47 1   
    43   19   20 ar  
    44   19   23 ar  
    45   20   21 ar  
    46   20   48 1   
    47   21   22 1   
    48   21   26 ar  
    49   22   49 1   
    50   22   50 1   
    51   22   51 1   
    52   23   24 ar  
    53   24   25 1   
    54   24   26 ar  
    55   25   52 1   
    56   25   53 1   
    57   26   54 1   
@<TRIPOS>SUBSTRUCTURE
     1 CXW         1 TEMP              0 ****  ****    0 ROOT
