@<TRIPOS>MOLECULE
CXW
   55    57     1     0     0
SMALL
bcc


@<TRIPOS>ATOM
      1 O22         0.8200    0.3060   -0.2080 oh        1 CXW     -0.549100
      2 C22         2.1380   -0.0130   -0.4590 ca        1 CXW      0.140100
      3 C23         3.0730   -0.2160    0.5640 ca        1 CXW     -0.192000
      4 C24         4.3950   -0.4960    0.2270 ca        1 CXW     -0.045000
      5 C25         4.7840   -0.5700   -1.1140 ca        1 CXW     -0.144000
      6 C26         3.8500   -0.3700   -2.1270 ca        1 CXW     -0.058000
      7 C21         2.5130   -0.0980   -1.8140 ca        1 CXW     -0.211300
      8 C13         1.4910    0.0320   -2.8870 c3        1 CXW      0.192100
      9 N12         0.8760    1.3990   -2.8960 n4        1 CXW     -0.763000
     10 C11        -0.1790    1.5360   -3.9400 c3        1 CXW      0.102800
     11 C10        -0.6780    2.9800   -4.0740 c3        1 CXW      0.107400
     12 O09         0.4830    3.7810   -4.2410 os        1 CXW     -0.462600
     13 C4'         0.2090    5.1620   -4.5130 c3        1 CXW      0.114100
     14 C5'        -0.0140    5.3770   -6.0320 c3        1 CXW      0.125800
     15 N1'         1.1920    5.9430   -6.6140 n3        1 CXW     -0.783200
     16 C2'         2.0070    6.4840   -5.5310 c3        1 CXW      0.142800
     17 C3'         1.4750    5.9790   -4.1670 c3        1 CXW     -0.085700
     18 C08         2.5000    5.1760   -3.3930 c3        1 CXW     -0.110700
     19 C06         3.6430    6.0290   -2.9110 ca        1 CXW      0.435600
     20 C05         3.3880    6.9880   -1.9140 ca        1 CXW     -0.300300
     21 C04         4.4490    7.7770   -1.4470 ca        1 CXW      0.006700
     22 C07         4.2150    8.8150   -0.4180 c3        1 CXW     -0.066800
     23 N01         4.8640    5.8160   -3.4500 nb        1 CXW     -0.742000
     24 C02         5.9080    6.5720   -2.9780 ca        1 CXW      0.648200
     25 N02         7.2010    6.2990   -3.4350 nh        1 CXW     -0.930500
     26 C03         5.7200    7.5760   -1.9770 ca        1 CXW     -0.297300
     27 H1          0.6500    0.1940    0.7410 ho        1 CXW      0.457000
     28 H2          2.7640   -0.1570    1.6180 ha        1 CXW      0.159000
     29 H3          5.1390   -0.6590    1.0240 ha        1 CXW      0.163000
     30 H4          5.8330   -0.7880   -1.3710 ha        1 CXW      0.164000
     31 H5          4.1630   -0.4390   -3.1820 ha        1 CXW      0.149000
     32 H6          0.6550   -0.7070   -2.7100 hx        1 CXW      0.105200
     33 H7          1.9430   -0.1530   -3.9030 hx        1 CXW      0.105200
     34 H8          0.4730    1.5890   -1.9680 hn        1 CXW      0.466300
     35 H10         0.2640    1.2030   -4.9220 hx        1 CXW      0.108200
     36 H11        -1.0420    0.8640   -3.6740 hx        1 CXW      0.108200
     37 H12        -1.2420    3.3080   -3.1600 h1        1 CXW      0.069700
     38 H13        -1.3470    3.0470   -4.9730 h1        1 CXW      0.069700
     39 H14        -0.6750    5.4950   -3.9120 h1        1 CXW      0.061700
     40 H15        -0.8450    6.1220   -6.1750 h1        1 CXW      0.061700
     41 H16        -0.3090    4.4160   -6.5300 h1        1 CXW      0.061700
     42 H17         1.7010    5.2420   -7.1210 hn        1 CXW      0.357800
     43 H19         3.0900    6.2190   -5.6590 h1        1 CXW      0.071200
     44 H20         1.9160    7.6050   -5.5730 h1        1 CXW      0.071200
     45 H21         1.1600    6.8630   -3.5490 hc        1 CXW      0.076700
     46 H22         2.0050    4.7240   -2.4910 hc        1 CXW      0.045200
     47 H23         2.8680    4.3300   -4.0340 hc        1 CXW      0.045200
     48 H24         2.3760    7.1190   -1.5120 ha        1 CXW      0.138000
     49 H25         5.1350    8.9890    0.1940 hc        1 CXW      0.055367
     50 H26         3.9360    9.7810   -0.9130 hc        1 CXW      0.055367
     51 H27         3.3830    8.5200    0.2670 hc        1 CXW      0.055367
     52 H28         7.2780    5.7590   -4.2680 hn        1 CXW      0.412800
     53 H29         7.8290    7.0670   -3.3770 hn        1 CXW      0.412800
     54 H30         6.5700    8.1750   -1.6230 ha        1 CXW      0.151000
     55 H122        1.6040    2.1090   -3.0700 hn        1 CXW      0.466300
@<TRIPOS>BOND
     1    1    2 1   
     2    1   27 1   
     3    2    3 ar  
     4    2    7 ar  
     5    3    4 ar  
     6    3   28 1   
     7    4    5 ar  
     8    4   29 1   
     9    5    6 ar  
    10    5   30 1   
    11    6    7 ar  
    12    6   31 1   
    13    7    8 1   
    14    8    9 1   
    15    8   32 1   
    16    8   33 1   
    17    9   10 1   
    18    9   34 1   
    19    9   55 1   
    20   10   11 1   
    21   10   35 1   
    22   10   36 1   
    23   11   12 1   
    24   11   37 1   
    25   11   38 1   
    26   12   13 1   
    27   13   14 1   
    28   13   17 1   
    29   13   39 1   
    30   14   15 1   
    31   14   40 1   
    32   14   41 1   
    33   15   16 1   
    34   15   42 1   
    35   16   17 1   
    36   16   43 1   
    37   16   44 1   
    38   17   18 1   
    39   17   45 1   
    40   18   19 1   
    41   18   46 1   
    42   18   47 1   
    43   19   20 ar  
    44   19   23 ar  
    45   20   21 ar  
    46   20   48 1   
    47   21   22 1   
    48   21   26 ar  
    49   22   49 1   
    50   22   50 1   
    51   22   51 1   
    52   23   24 ar  
    53   24   25 1   
    54   24   26 ar  
    55   25   52 1   
    56   25   53 1   
    57   26   54 1   
@<TRIPOS>SUBSTRUCTURE
     1 CXW         1 TEMP              0 ****  ****    0 ROOT
