@<TRIPOS>MOLECULE
CXW
   54    49     1     0     0
SMALL
bcc


@<TRIPOS>ATOM
      1 O22        -1.2260    1.1780    5.9470 oh        1 CXW     -0.262000
      2 C22         0.1070    0.8900    6.3720 c1        1 CXW      0.078000
      3 C23         0.3670    0.6180    7.7180 c1        1 CXW     -0.136750
      4 C24         1.6760    0.4460    8.1470 c1        1 CXW     -0.136750
      5 C25         2.7220    0.5470    7.2340 c1        1 CXW     -0.136750
      6 C26         2.4520    0.8190    5.8960 c1        1 CXW     -0.136750
      7 C21         1.1520    0.9890    5.4720 c1        1 CXW     -0.100000
      8 C13         0.8810    1.3420    4.0350 c3        1 CXW     -0.023000
      9 N12         0.9710    0.1140    3.1980 n3        1 CXW     -0.295000
     10 C11         0.7420    0.4580    1.7980 c3        1 CXW     -0.080000
     11 C10         0.4500   -0.8530    0.9750 c3        1 CXW     -0.023000
     12 O09         0.6400   -0.6010   -0.4010 os        1 CXW     -0.274000
     13 C4'         0.7520   -1.7720   -1.1820 c3        1 CXW      0.006000
     14 C5'         2.3410   -2.0920   -1.5130 c3        1 CXW     -0.124000
     15 N1'         2.3490   -2.8380   -2.5880 n3        1 CXW     -0.266000
     16 C2'         1.0170   -2.4480   -3.3710 c3        1 CXW     -0.096000
     17 C3'         0.1580   -1.6030   -2.3600 c3        1 CXW     -0.118000
     18 C08         0.1850   -0.0660   -2.7800 c3        1 CXW     -0.098000
     19 C06        -1.0340    0.2400   -3.6620 c1        1 CXW      0.028000
     20 C05        -0.8920    1.0370   -4.7870 c1        1 CXW     -0.226000
     21 C04        -1.9880    1.3880   -5.5130 c1        1 CXW      0.000000
     22 C07        -1.8410    2.3010   -6.6970 c2        1 CXW     -0.186000
     23 N01        -2.2730   -0.1920   -3.2810 n1        1 CXW     -0.206000
     24 C02        -3.3730    0.1580   -4.0060 c1        1 CXW      0.107000
     25 N02        -4.7090   -0.2740   -3.5610 n2        1 CXW     -0.320000
     26 C03        -3.2380    0.9500   -5.1270 c2        1 CXW     -0.237000
     27 H1         -1.5020    1.9380    6.3250 ho        1 CXW      0.221000
     28 H2         -0.3410    0.5520    8.3290 ha        1 CXW      0.135250
     29 H3          1.8620    0.2560    9.0850 ha        1 CXW      0.135250
     30 H4          3.6920    0.4230    7.5460 ha        1 CXW      0.135250
     31 H5          3.1860    0.8920    5.2520 ha        1 CXW      0.135250
     32 H6          0.0030    1.7190    3.9560 h1        1 CXW      0.079500
     33 H7          1.5770    2.0230    3.7180 h1        1 CXW      0.079500
     34 H8          0.3050   -0.5210    3.4880 hn        1 CXW      0.163000
     35 H10         1.5250    0.8930    1.4410 h1        1 CXW      0.082000
     36 H11         0.0070    1.0360    1.7350 h1        1 CXW      0.082000
     37 H12        -0.4310   -1.1220    1.1240 h1        1 CXW      0.074000
     38 H13         1.0680   -1.5700    1.2670 h1        1 CXW      0.074000
     39 H14         0.3270   -2.5730   -0.6820 h1        1 CXW      0.081000
     40 H15         2.7570   -2.5850   -0.7520 h1        1 CXW      0.095500
     41 H16         2.8380   -1.2320   -1.6820 h1        1 CXW      0.095500
     42 H17         2.3150   -3.7150   -2.3480 hn        1 CXW      0.140000
     43 H19         0.5170   -3.2790   -3.6400 h1        1 CXW      0.094000
     44 H20         1.2390   -1.8900   -4.1970 h1        1 CXW      0.094000
     45 H21        -0.7950   -1.9450   -2.3310 hc        1 CXW      0.110000
     46 H22         0.1570    0.5200   -1.9460 hc        1 CXW      0.109000
     47 H23         1.0470    0.1290   -3.3090 hc        1 CXW      0.109000
     48 H24        -0.0080    1.3790   -5.0370 ha        1 CXW      0.144000
     49 H25        -1.7840    3.2550   -6.3790 ha        1 CXW      0.088333
     50 H26        -1.0250    2.0710   -7.1850 ha        1 CXW      0.088333
     51 H27        -2.6500    2.1950   -7.3160 ha        1 CXW      0.088333
     52 H28        -4.7940   -1.0030   -2.9800 hn        1 CXW      0.193500
     53 H29        -5.4890    0.2260   -3.8180 hn        1 CXW      0.193500
     54 H30        -3.9920    1.1900   -5.6240 ha        1 CXW      0.140000
@<TRIPOS>BOND
     1    1    2 1   
     2    1   27 1   
     3    2    7 1   
     4    3    4 1   
     5    3   28 1   
     6    4   29 1   
     7    5    6 1   
     8    5   30 1   
     9    6   31 1   
    10    7    8 1   
    11    8    9 1   
    12    8   32 1   
    13    8   33 1   
    14    9   10 1   
    15    9   34 1   
    16   10   11 1   
    17   10   35 1   
    18   10   36 1   
    19   11   12 1   
    20   11   37 1   
    21   11   38 1   
    22   12   13 1   
    23   13   14 1   
    24   13   17 1   
    25   13   39 1   
    26   14   15 1   
    27   14   40 1   
    28   14   41 1   
    29   15   16 1   
    30   15   42 1   
    31   16   17 1   
    32   16   43 1   
    33   16   44 1   
    34   17   18 1   
    35   17   45 1   
    36   18   19 1   
    37   18   46 1   
    38   18   47 1   
    39   19   23 1   
    40   20   21 1   
    41   20   48 1   
    42   21   26 1   
    43   22   49 1   
    44   22   50 1   
    45   22   51 1   
    46   24   26 1   
    47   25   52 1   
    48   25   53 1   
    49   26   54 1   
@<TRIPOS>SUBSTRUCTURE
     1 CXW         1 TEMP              0 ****  ****    0 ROOT
