@<TRIPOS>MOLECULE
CXW
   56    58     1     0     0
SMALL
bcc


@<TRIPOS>ATOM
      1 O22        -0.2520   -0.1160    0.0080 oh        1 CXW     -0.555100
      2 C22         0.3960   -1.1870   -0.5710 ca        1 CXW      0.141100
      3 C23         0.8780   -2.2710    0.1740 ca        1 CXW     -0.189000
      4 C24         1.5570   -3.2960   -0.4800 ca        1 CXW     -0.039000
      5 C25         1.7610   -3.2400   -1.8630 ca        1 CXW     -0.142000
      6 C26         1.2780   -2.1630   -2.6000 ca        1 CXW     -0.061000
      7 C21         0.5810   -1.1260   -1.9670 ca        1 CXW     -0.221300
      8 C13        -0.0320   -0.0280   -2.7590 c3        1 CXW      0.195100
      9 N12         0.5400    1.3100   -2.3800 n4        1 CXW     -0.762000
     10 C11        -0.0780    2.4220   -3.1500 c3        1 CXW      0.067800
     11 C10         0.5770    3.7770   -2.8460 c3        1 CXW      0.103400
     12 O09         1.9760    3.7070   -3.0500 os        1 CXW     -0.438600
     13 C4'         2.4270    4.0650   -4.3620 c3        1 CXW      0.103100
     14 C5'         3.5320    3.0430   -4.7500 c3        1 CXW      0.145800
     15 N1'         4.8250    3.7030   -4.7280 n3        1 CXW     -0.782200
     16 C2'         4.6010    5.1420   -4.7240 c3        1 CXW      0.148800
     17 C3'         3.1190    5.4460   -4.3880 c3        1 CXW     -0.106700
     18 C08         2.9670    6.2150   -3.0910 c3        1 CXW     -0.123700
     19 C06         3.6140    7.5740   -3.1500 ca        1 CXW      0.456600
     20 C05         4.7680    7.8140   -2.3600 ca        1 CXW     -0.201300
     21 C04         5.3810    9.0680   -2.3820 ca        1 CXW      0.011700
     22 C07         6.5910    9.3510   -1.5800 c3        1 CXW     -0.085800
     23 N01         3.0710    8.5260   -3.9380 nb        1 CXW     -0.671000
     24 C02         3.6850    9.7440   -3.9460 ca        1 CXW      0.452200
     25 N02         3.0750   10.7750   -4.8180 n4        1 CXW     -0.818300
     26 C03         4.8280   10.0740   -3.1980 ca        1 CXW     -0.206300
     27 H1         -0.4790   -0.3500    0.9220 ho        1 CXW      0.462000
     28 H2          0.7130   -2.3130    1.2620 ha        1 CXW      0.164000
     29 H3          1.9350   -4.1570    0.0970 ha        1 CXW      0.169000
     30 H4          2.3000   -4.0560   -2.3710 ha        1 CXW      0.168000
     31 H5          1.4290   -2.1360   -3.6920 ha        1 CXW      0.148000
     32 H6          0.1380   -0.1790   -3.8640 hx        1 CXW      0.106700
     33 H7         -1.1420    0.0190   -2.5550 hx        1 CXW      0.106700
     34 H8          0.3860    1.4570   -1.3710 hn        1 CXW      0.461800
     35 H10        -1.1740    2.4710   -2.8930 hx        1 CXW      0.110200
     36 H11         0.0290    2.1860   -4.2470 hx        1 CXW      0.110200
     37 H12         0.0850    4.5560   -3.4860 h1        1 CXW      0.088200
     38 H13         0.4560    4.0510   -1.7610 h1        1 CXW      0.088200
     39 H14         1.5770    4.0330   -5.0920 h1        1 CXW      0.063700
     40 H15         3.5040    2.1550   -4.0640 h1        1 CXW      0.063700
     41 H16         3.3450    2.6910   -5.8020 h1        1 CXW      0.063700
     42 H17         5.3630    3.4190   -3.9300 hn        1 CXW      0.368800
     43 H19         5.2880    5.6620   -4.0040 h1        1 CXW      0.060200
     44 H20         4.8330    5.5180   -5.7600 h1        1 CXW      0.060200
     45 H21         2.6710    6.0450   -5.2260 hc        1 CXW      0.078700
     46 H22         3.4290    5.6310   -2.2500 hc        1 CXW      0.074700
     47 H23         1.8730    6.3270   -2.8560 hc        1 CXW      0.074700
     48 H24         5.1760    7.0060   -1.7300 ha        1 CXW      0.180000
     49 H25         7.4990    9.3150   -2.2370 hc        1 CXW      0.081367
     50 H26         6.5350   10.3690   -1.1190 hc        1 CXW      0.081367
     51 H27         6.7210    8.5990   -0.7630 hc        1 CXW      0.081367
     52 H28         2.0920   10.9220   -4.5550 hn        1 CXW      0.473800
     53 H29         3.1130   10.4700   -5.7990 hn        1 CXW      0.473800
     54 H30         5.2960   11.0710   -3.2280 ha        1 CXW      0.176000
     55 H122        1.5550    1.3150   -2.5440 hn        1 CXW      0.461800
     56 H023        3.5930   11.6550   -4.7130 hn        1 CXW      0.473800
@<TRIPOS>BOND
     1    1    2 1   
     2    1   27 1   
     3    2    3 ar  
     4    2    7 ar  
     5    3    4 ar  
     6    3   28 1   
     7    4    5 ar  
     8    4   29 1   
     9    5    6 ar  
    10    5   30 1   
    11    6    7 ar  
    12    6   31 1   
    13    7    8 1   
    14    8    9 1   
    15    8   32 1   
    16    8   33 1   
    17    9   10 1   
    18    9   34 1   
    19    9   55 1   
    20   10   11 1   
    21   10   35 1   
    22   10   36 1   
    23   11   12 1   
    24   11   37 1   
    25   11   38 1   
    26   12   13 1   
    27   13   14 1   
    28   13   17 1   
    29   13   39 1   
    30   14   15 1   
    31   14   40 1   
    32   14   41 1   
    33   15   16 1   
    34   15   42 1   
    35   16   17 1   
    36   16   43 1   
    37   16   44 1   
    38   17   18 1   
    39   17   45 1   
    40   18   19 1   
    41   18   46 1   
    42   18   47 1   
    43   19   20 ar  
    44   19   23 ar  
    45   20   21 ar  
    46   20   48 1   
    47   21   22 1   
    48   21   26 ar  
    49   22   49 1   
    50   22   50 1   
    51   22   51 1   
    52   23   24 ar  
    53   24   25 1   
    54   24   26 ar  
    55   25   52 1   
    56   25   53 1   
    57   25   56 1   
    58   26   54 1   
@<TRIPOS>SUBSTRUCTURE
     1 CXW         1 TEMP              0 ****  ****    0 ROOT
