@<TRIPOS>MOLECULE
CXW
   54    56     1     0     0
SMALL
bcc


@<TRIPOS>ATOM
      1 O22        -4.9510   -0.0050    1.6750 oh        1 CXW     -0.504100
      2 C22        -4.6030   -0.8360    0.6390 ca        1 CXW      0.155100
      3 C23        -4.9080   -2.1970    0.8340 ca        1 CXW     -0.166000
      4 C24        -4.6070   -3.1140   -0.1640 ca        1 CXW     -0.093000
      5 C25        -4.0030   -2.6930   -1.3520 ca        1 CXW     -0.172000
      6 C26        -3.7040   -1.3480   -1.5410 ca        1 CXW     -0.086000
      7 C21        -4.0030   -0.4000   -0.5560 ca        1 CXW     -0.180300
      8 C13        -3.7100    1.0480   -0.8110 c3        1 CXW      0.207100
      9 N12        -2.7050    1.5930    0.0870 n3        1 CXW     -0.836200
     10 C11        -2.2450    2.9080   -0.3140 c3        1 CXW      0.163800
     11 C10        -1.0000    3.3650    0.4530 c3        1 CXW      0.122400
     12 O09         0.0660    2.5090    0.0460 os        1 CXW     -0.423600
     13 C4'         1.2950    2.8040    0.7020 c3        1 CXW      0.114100
     14 C5'         1.9680    4.0550    0.0750 c3        1 CXW      0.114800
     15 N1'         3.3130    3.7110   -0.3650 n3        1 CXW     -0.790200
     16 C2'         3.4110    2.2540   -0.3970 c3        1 CXW      0.148800
     17 C3'         2.2880    1.6410    0.4720 c3        1 CXW     -0.072700
     18 C08         1.6460    0.4240   -0.1590 c3        1 CXW     -0.113700
     19 C06         2.4590   -0.8340   -0.0070 ca        1 CXW      0.450600
     20 C05         1.7890   -2.0050    0.4050 ca        1 CXW     -0.292300
     21 C04         2.5130   -3.1970    0.5200 ca        1 CXW     -0.005300
     22 C07         1.8400   -4.4410    0.9580 c3        1 CXW     -0.061800
     23 N01         3.7770   -0.8020   -0.3000 nb        1 CXW     -0.733000
     24 C02         4.4900   -1.9650   -0.1690 ca        1 CXW      0.630200
     25 N02         5.8830   -1.9330   -0.3620 nh        1 CXW     -0.922500
     26 C03         3.8760   -3.1900    0.2300 ca        1 CXW     -0.302300
     27 H1         -4.6090    0.8830    1.4980 ho        1 CXW      0.441000
     28 H2         -5.3820   -2.5090    1.7750 ha        1 CXW      0.150000
     29 H3         -4.8440   -4.1790   -0.0170 ha        1 CXW      0.133000
     30 H4         -3.7650   -3.4250   -2.1370 ha        1 CXW      0.133000
     31 H5         -3.2300   -1.0210   -2.4800 ha        1 CXW      0.132000
     32 H6         -3.4210    1.1740   -1.8980 h1        1 CXW      0.039200
     33 H7         -4.6540    1.6480   -0.6550 h1        1 CXW      0.039200
     34 H8         -1.9260    0.9650    0.1750 hn        1 CXW      0.377800
     35 H10        -2.0130    2.9620   -1.4190 h1        1 CXW      0.041200
     36 H11        -3.0720    3.6420   -0.0990 h1        1 CXW      0.041200
     37 H12        -0.7610    4.4260    0.1770 h1        1 CXW      0.038200
     38 H13        -1.1470    3.2920    1.5630 h1        1 CXW      0.038200
     39 H14         1.1100    2.9550    1.7980 h1        1 CXW      0.042700
     40 H15         1.3820    4.3710   -0.8320 h1        1 CXW      0.053200
     41 H16         1.9740    4.9070    0.8040 h1        1 CXW      0.053200
     42 H17         3.9900    4.0880    0.2750 hn        1 CXW      0.344800
     43 H19         3.2870    1.9320   -1.4670 h1        1 CXW      0.063200
     44 H20         4.4170    1.9050   -0.0450 h1        1 CXW      0.063200
     45 H21         2.7130    1.3520    1.4700 hc        1 CXW      0.059700
     46 H22         0.6410    0.2580    0.3170 hc        1 CXW      0.067200
     47 H23         1.4660    0.6120   -1.2520 hc        1 CXW      0.067200
     48 H24         0.7150   -1.9810    0.6280 ha        1 CXW      0.145000
     49 H25         1.7710   -4.4600    2.0750 hc        1 CXW      0.049367
     50 H26         0.8040   -4.4990    0.5430 hc        1 CXW      0.049367
     51 H27         2.4070   -5.3450    0.6270 hc        1 CXW      0.049367
     52 H28         6.2360   -1.1230   -0.8240 hn        1 CXW      0.399300
     53 H29         6.2500   -2.7870   -0.7190 hn        1 CXW      0.399300
     54 H30         4.4680   -4.1100    0.3170 ha        1 CXW      0.141000
@<TRIPOS>BOND
     1    1    2 1   
     2    1   27 1   
     3    2    3 ar  
     4    2    7 ar  
     5    3    4 ar  
     6    3   28 1   
     7    4    5 ar  
     8    4   29 1   
     9    5    6 ar  
    10    5   30 1   
    11    6    7 ar  
    12    6   31 1   
    13    7    8 1   
    14    8    9 1   
    15    8   32 1   
    16    8   33 1   
    17    9   10 1   
    18    9   34 1   
    19   10   11 1   
    20   10   35 1   
    21   10   36 1   
    22   11   12 1   
    23   11   37 1   
    24   11   38 1   
    25   12   13 1   
    26   13   14 1   
    27   13   17 1   
    28   13   39 1   
    29   14   15 1   
    30   14   40 1   
    31   14   41 1   
    32   15   16 1   
    33   15   42 1   
    34   16   17 1   
    35   16   43 1   
    36   16   44 1   
    37   17   18 1   
    38   17   45 1   
    39   18   19 1   
    40   18   46 1   
    41   18   47 1   
    42   19   20 ar  
    43   19   23 ar  
    44   20   21 ar  
    45   20   48 1   
    46   21   22 1   
    47   21   26 ar  
    48   22   49 1   
    49   22   50 1   
    50   22   51 1   
    51   23   24 ar  
    52   24   25 1   
    53   24   26 ar  
    54   25   52 1   
    55   25   53 1   
    56   26   54 1   
@<TRIPOS>SUBSTRUCTURE
     1 CXW         1 TEMP              0 ****  ****    0 ROOT
