@<TRIPOS>MOLECULE
CXX
   45    41     1     0     0
SMALL
bcc


@<TRIPOS>ATOM
      1 C1          2.0070    1.1420   -0.9170 c1        1 CXX     -0.177000
      2 C2          3.4040    1.1190   -0.8970 c1        1 CXX     -0.043000
      3 C3          4.0990    1.0690    0.3440 c2        1 CXX     -0.146000
      4 C4          3.3890    1.0430    1.5370 c1        1 CXX     -0.111000
      5 C5          1.2390    1.9150    2.5950 c3        1 CXX     -0.110000
      6 C6         -0.1450    1.3560    2.8870 c3        1 CXX     -0.114000
      7 C8         -3.0380    3.5840    1.4610 c1        1 CXX     -0.128500
      8 C9         -2.7940    3.3500    0.0840 c1        1 CXX     -0.128500
      9 C10        -1.7670    2.4810   -0.3140 c1        1 CXX     -0.157000
     10 C11        -0.9710    1.8340    0.6590 c1        1 CXX      0.055000
     11 C13         1.9610    1.0670    1.5190 c1        1 CXX     -0.083000
     12 C14         1.2780    1.1160    0.3030 c1        1 CXX      0.096000
     13 C17        -0.9070   -2.3890   -1.6610 c3        1 CXX     -0.065000
     14 C18        -1.5970   -4.6420   -1.7030 c3        1 CXX     -0.121000
     15 C7         -2.2550    2.9490    2.4280 c1        1 CXX     -0.116000
     16 C12        -1.2060    2.0610    2.0280 c2        1 CXX     -0.071000
     17 C15        -0.5180   -0.0740   -0.7520 c3        1 CXX     -0.031000
     18 C16        -0.5480   -1.5860   -0.4200 c3        1 CXX     -0.172000
     19 C19         0.5550   -4.0680   -2.4440 c3        1 CXX     -0.121000
     20 N1         -0.0870    0.6910    0.4620 n2        1 CXX     -0.232000
     21 N2         -0.4770   -3.7710   -1.4850 n3        1 CXX     -0.262000
     22 CL2         4.3400    1.0960   -2.3870 cl        1 CXX     -0.022000
     23 H1          1.5240    1.1780   -1.7850 ha        1 CXX      0.148000
     24 H3          5.1100    1.0510    0.3570 ha        1 CXX      0.148000
     25 H4          3.8750    1.0060    2.4050 ha        1 CXX      0.135000
     26 H51         1.7800    1.9100    3.4350 hc        1 CXX      0.089000
     27 H61        -0.1530    0.3910    2.6840 hc        1 CXX      0.096000
     28 H8         -3.7650    4.2030    1.7390 ha        1 CXX      0.132500
     29 H9         -3.3220    3.7790   -0.5660 ha        1 CXX      0.132500
     30 H10        -1.6000    2.3170   -1.2900 ha        1 CXX      0.134000
     31 H171       -0.4510   -2.0010   -2.4570 h1        1 CXX      0.067500
     32 H172       -1.8870   -2.3650   -1.7960 h1        1 CXX      0.067500
     33 H181       -2.2670   -4.4720   -1.0370 h1        1 CXX      0.071000
     34 H182       -1.2960   -5.6050   -1.6390 h1        1 CXX      0.071000
     35 H183       -1.9870   -4.4660   -2.6330 h1        1 CXX      0.071000
     36 H7         -2.4310    3.1220    3.4240 ha        1 CXX      0.133000
     37 H151        0.1030    0.0870   -1.4700 h1        1 CXX      0.080000
     38 H152       -1.4310    0.2240   -1.0280 h1        1 CXX      0.080000
     39 H161        0.3270   -1.8630   -0.0990 hc        1 CXX      0.102000
     40 H162       -1.2450   -1.7590    0.3030 hc        1 CXX      0.102000
     41 H191        0.2020   -3.9200   -3.3620 h1        1 CXX      0.071000
     42 H192        0.8380   -5.0080   -2.3460 h1        1 CXX      0.071000
     43 H193        1.3210   -3.4790   -2.2900 h1        1 CXX      0.071000
     44 H52         1.1520    2.8400    2.2710 hc        1 CXX      0.089000
     45 H62        -0.3570    1.4890    3.8530 hc        1 CXX      0.096000
@<TRIPOS>BOND
     1    1    2 1   
     2    1   23 1   
     3    2    3 1   
     4    3    4 1   
     5    3   24 1   
     6    4   25 1   
     7    5    6 1   
     8    5   11 1   
     9    5   26 1   
    10    5   44 1   
    11    6   16 1   
    12    6   27 1   
    13    6   45 1   
    14    7    8 1   
    15    7   28 1   
    16    8   29 1   
    17    9   10 1   
    18    9   30 1   
    19   10   16 1   
    20   11   12 1   
    21   12   20 1   
    22   13   18 1   
    23   13   21 1   
    24   13   31 1   
    25   13   32 1   
    26   14   21 1   
    27   14   33 1   
    28   14   34 1   
    29   14   35 1   
    30   15   16 1   
    31   15   36 1   
    32   17   18 1   
    33   17   20 1   
    34   17   37 1   
    35   17   38 1   
    36   18   39 1   
    37   18   40 1   
    38   19   21 1   
    39   19   41 1   
    40   19   42 1   
    41   19   43 1   
@<TRIPOS>SUBSTRUCTURE
     1 CXX         1 TEMP              0 ****  ****    0 ROOT
