@<TRIPOS>MOLECULE
CXX
   46    46     1     0     0
SMALL
bcc


@<TRIPOS>ATOM
      1 C1         -0.9240   -0.1550   -0.0640 ca        1 CXX     -0.160000
      2 C2          0.3260   -0.2910   -0.6660 ca        1 CXX     -0.064000
      3 C3          1.4920   -0.3010    0.1020 ca        1 CXX     -0.118000
      4 C4          1.3900   -0.1770    1.4840 ca        1 CXX     -0.116000
      5 C5          0.1000    0.0920    3.5940 c3        1 CXX     -0.182000
      6 C6         -4.6030    0.7430    3.9820 c2        1 CXX     -0.160000
      7 C8         -3.8690    3.8420    2.1530 c2        1 CXX     -0.120000
      8 C9         -2.4050    3.7080    2.2360 c2        1 CXX     -0.056000
      9 C10        -2.0320    2.4350    2.2470 c1        1 CXX     -0.226000
     10 C11        -2.7160    1.2870    2.4020 c2        1 CXX      0.077000
     11 C13         0.1510   -0.0560    2.1210 ca        1 CXX     -0.034000
     12 C14        -1.0310   -0.0540    1.3370 ca        1 CXX      0.028000
     13 C17        -3.9900   -3.0940    0.5640 c3        1 CXX     -0.106000
     14 C18        -4.0670   -5.3160    1.5670 c3        1 CXX     -0.168000
     15 C7         -4.6150    2.8220    2.6410 c2        1 CXX     -0.142000
     16 C12        -4.0190    1.5420    3.0820 c2        1 CXX     -0.063000
     17 C16        -2.9450   -2.3170    1.3580 c3        1 CXX     -0.197000
     18 C19        -5.1310   -5.4550   -1.8540 c2        1 CXX      0.269000
     19 N1         -2.3080    0.0010    1.9920 nh        1 CXX     -0.176000
     20 N2         -3.7200   -4.5210    0.4030 n7        1 CXX     -0.320000
     21 Cl2         0.4240   -0.4380   -2.3590 cl        1 CXX     -0.019000
     22 H1         -1.8230   -0.1070   -0.6980 ha        1 CXX      0.138000
     23 H3          2.3090   -0.1690    2.0930 ha        1 CXX      0.148000
     24 H4          2.4790   -0.3960   -0.3770 ha        1 CXX      0.156000
     25 H51         1.1240    0.0720    4.0400 hc        1 CXX      0.094667
     26 H61        -0.3840    1.0690    3.8590 hc        1 CXX      0.094667
     27 H8         -5.7030    2.9130    2.7700 ha        1 CXX      0.139000
     28 H9         -4.3010    4.7930    1.8170 ha        1 CXX      0.148000
     29 H10        -1.7740    4.5880    2.3880 ha        1 CXX      0.164000
     30 H171       -4.9970   -2.9670    1.0520 h1        1 CXX      0.097000
     31 H172       -4.0510   -2.6580   -0.4750 h1        1 CXX      0.097000
     32 H181       -5.1730   -5.2520    1.7450 h1        1 CXX      0.100000
     33 H182       -3.5420   -4.9720    2.5000 h1        1 CXX      0.100000
     34 H183       -3.7860   -6.3850    1.3770 h1        1 CXX      0.100000
     35 H7         -5.5930    0.9650    4.4040 ha        1 CXX      0.125500
     36 H151       -2.8680   -2.7200    2.4010 hc        1 CXX      0.109000
     37 H152       -4.2710   -0.7360    2.0300 h1        1 CXX      0.085000
     38 H161       -3.6020   -0.5020    0.3560 h1        1 CXX      0.085000
     39 H162       -1.9360   -2.4300    0.8750 hc        1 CXX      0.109000
     40 H191       -4.5760   -5.0670   -0.8880 ha        1 CXX      0.201000
     41 H192       -4.5790   -5.9900   -2.6470 ha        1 CXX      0.201000
     42 H193       -6.2130   -5.2920   -1.9900 ha        1 CXX      0.201000
     43 H52        -4.1190   -0.1690    4.3570 ha        1 CXX      0.125500
     44 H62        -0.5020   -0.7310    4.0530 hc        1 CXX      0.094667
     45 C15        -3.3400   -0.8400    1.4030 c3        1 CXX     -0.040000
     46 H21        -2.7400   -4.6470    0.1970 hn        1 CXX      0.181000
@<TRIPOS>BOND
     1    1    2 1   
     2    1   12 1   
     3    1   22 1   
     4    2    3 1   
     5    2   21 1   
     6    3    4 1   
     7    3   24 1   
     8    4   11 1   
     9    4   23 1   
    10    5   11 1   
    11    5   25 1   
    12    5   26 1   
    13    5   44 1   
    14    6   16 1   
    15    6   35 1   
    16    6   43 1   
    17    7    8 1   
    18    7   15 1   
    19    7   28 1   
    20    8    9 1   
    21    8   29 1   
    22    9   10 1   
    23   10   16 1   
    24   10   19 1   
    25   11   12 1   
    26   12   19 1   
    27   13   17 1   
    28   13   20 1   
    29   13   30 1   
    30   13   31 1   
    31   14   20 1   
    32   14   32 1   
    33   14   33 1   
    34   14   34 1   
    35   15   16 1   
    36   15   27 1   
    37   17   36 1   
    38   17   39 1   
    39   17   45 1   
    40   18   40 1   
    41   18   41 1   
    42   18   42 1   
    43   19   45 1   
    44   20   46 1   
    45   37   45 1   
    46   38   45 1   
@<TRIPOS>SUBSTRUCTURE
     1 CXX         1 TEMP              0 ****  ****    0 ROOT
