@<TRIPOS>MOLECULE
CXX
   45    47     1     0     0
SMALL
bcc


@<TRIPOS>ATOM
      1 C1          2.1370   -0.8010   -0.5900 ca        1 CXX     -0.149000
      2 C2          3.3330   -1.1440    0.0250 ca        1 CXX      0.030400
      3 C3          3.6920   -0.5780    1.2520 ca        1 CXX     -0.142000
      4 C4          2.8270    0.3310    1.8390 ca        1 CXX     -0.111000
      5 C5          0.8210    1.7020    2.0260 c3        1 CXX     -0.028100
      6 C6         -0.6670    1.7580    1.7560 c3        1 CXX     -0.037100
      7 C8         -1.7850    4.1950   -0.9150 ca        1 CXX     -0.133000
      8 C9         -1.3980    3.5250   -2.0750 ca        1 CXX     -0.128000
      9 C10        -0.7830    2.2800   -1.9980 ca        1 CXX     -0.125000
     10 C11        -0.5420    1.6780   -0.7430 ca        1 CXX      0.143600
     11 C13         1.5990    0.6920    1.2550 ca        1 CXX     -0.105300
     12 C14         1.2340    0.1190    0.0150 ca        1 CXX      0.183600
     13 C17        -2.6820   -2.2640   -0.5100 c3        1 CXX      0.173800
     14 C18        -4.5110   -1.9610    1.0560 c3        1 CXX      0.156100
     15 C7         -1.5500    3.6150    0.3280 ca        1 CXX     -0.120000
     16 C12        -0.9370    2.3630    0.4270 ca        1 CXX     -0.098300
     17 C16        -1.8220   -1.1220    0.0270 c3        1 CXX     -0.118400
     18 C19        -4.1480   -4.1010    0.0110 c3        1 CXX      0.156100
     19 N1          0.0610    0.3930   -0.7220 nh        1 CXX     -0.587400
     20 N2         -3.5460   -2.8750    0.4900 n3        1 CXX     -0.737600
     21 CL2         4.3770   -2.2570   -0.7290 cl        1 CXX     -0.099400
     22 H1          1.8950   -1.2420   -1.5710 ha        1 CXX      0.151000
     23 H3          4.6410   -0.8460    1.7400 ha        1 CXX      0.147000
     24 H4          3.1070    0.7860    2.8030 ha        1 CXX      0.134000
     25 H51         1.2680    2.7150    1.8210 hc        1 CXX      0.053200
     26 H61        -1.1080    0.7260    1.8080 hc        1 CXX      0.055200
     27 H8         -2.2720    5.1780   -0.9820 ha        1 CXX      0.133000
     28 H9         -1.5760    3.9830   -3.0600 ha        1 CXX      0.133000
     29 H10        -0.4810    1.7640   -2.9230 ha        1 CXX      0.141000
     30 H171       -3.2780   -1.8770   -1.3900 h1        1 CXX      0.029200
     31 H172       -1.9960   -3.0720   -0.8980 h1        1 CXX      0.029200
     32 H181       -5.1970   -1.5070    0.2880 h1        1 CXX      0.031033
     33 H182       -5.1360   -2.5070    1.8110 h1        1 CXX      0.031033
     34 H183       -3.9630   -1.1340    1.5790 h1        1 CXX      0.031033
     35 H7         -1.8530    4.1430    1.2450 ha        1 CXX      0.132000
     36 H151       -0.1720   -1.6120   -1.2930 h1        1 CXX      0.052700
     37 H152       -1.3770   -0.4280   -1.9830 h1        1 CXX      0.052700
     38 H161       -2.4680   -0.2440    0.2900 hc        1 CXX      0.056700
     39 H162       -1.2860   -1.4440    0.9570 hc        1 CXX      0.056700
     40 H191       -3.3360   -4.8110   -0.2960 h1        1 CXX      0.031033
     41 H192       -4.7330   -4.5660    0.8470 h1        1 CXX      0.031033
     42 H193       -4.8370   -3.9450   -0.8640 h1        1 CXX      0.031033
     43 H52         0.9620    1.4980    3.1240 hc        1 CXX      0.053200
     44 H62        -1.1550    2.3680    2.5640 hc        1 CXX      0.055200
     45 C15        -0.8120   -0.7170   -1.0490 c3        1 CXX      0.222800
@<TRIPOS>BOND
     1    1    2 ar  
     2    1   12 ar  
     3    1   22 1   
     4    2    3 ar  
     5    2   21 1   
     6    3    4 ar  
     7    3   23 1   
     8    4   11 ar  
     9    4   24 1   
    10    5    6 1   
    11    5   11 1   
    12    5   25 1   
    13    5   43 1   
    14    6   16 1   
    15    6   26 1   
    16    6   44 1   
    17    7    8 ar  
    18    7   15 ar  
    19    7   27 1   
    20    8    9 ar  
    21    8   28 1   
    22    9   10 ar  
    23    9   29 1   
    24   10   16 ar  
    25   10   19 1   
    26   11   12 ar  
    27   12   19 1   
    28   13   17 1   
    29   13   20 1   
    30   13   30 1   
    31   13   31 1   
    32   14   20 1   
    33   14   32 1   
    34   14   33 1   
    35   14   34 1   
    36   15   16 ar  
    37   15   35 1   
    38   17   38 1   
    39   17   39 1   
    40   17   45 1   
    41   18   20 1   
    42   18   40 1   
    43   18   41 1   
    44   18   42 1   
    45   19   45 1   
    46   36   45 1   
    47   37   45 1   
@<TRIPOS>SUBSTRUCTURE
     1 CXX         1 TEMP              0 ****  ****    0 ROOT
