@<TRIPOS>MOLECULE
CXX
   46    47     1     0     0
SMALL
bcc


@<TRIPOS>ATOM
      1 C1         -0.6060    0.7320    0.4120 c2        1 CXX     -0.207000
      2 C2          0.6150    1.2550    0.1120 c2        1 CXX     -0.021000
      3 C3          1.7800    1.0440    1.0040 c3        1 CXX     -0.229000
      4 C4          1.5680    0.2460    2.1900 c1        1 CXX     -0.013000
      5 C5          0.1880   -1.2240    3.6320 c3        1 CXX     -0.199000
      6 C6         -3.1510    0.6490    4.5040 c2        1 CXX     -0.106000
      7 C8         -4.0190    3.1120    1.8880 c2        1 CXX     -0.150000
      8 C9         -4.4750    2.1400    0.8910 c2        1 CXX      0.027000
      9 C10        -3.7960    0.9930    0.9940 c1        1 CXX     -0.163000
     10 C11        -3.1210    0.4380    2.0020 c2        1 CXX     -0.102000
     11 C13         0.2870   -0.3500    2.4400 c2        1 CXX     -0.126000
     12 C14        -0.7680   -0.0790    1.5960 c2        1 CXX      0.001000
     13 C17        -3.8820   -3.5280    0.0860 c3        1 CXX     -0.265000
     14 C18        -6.2830   -4.0450    0.2650 c3        1 CXX     -0.163000
     15 C7         -3.5430    2.6120    3.0580 c2        1 CXX     -0.070000
     16 C12        -3.2760    1.1770    3.2770 c2        1 CXX     -0.079000
     17 C16        -3.6280   -2.5500    1.2200 c3        1 CXX     -0.191000
     18 C19        -4.7630   -5.7620   -0.3940 c2        1 CXX     -0.744000
     19 N1         -2.1220   -0.6210    1.8660 n4        1 CXX      0.090000
     20 N2         -4.9250   -4.6290    0.3880 n4        1 CXX      0.218000
     21 CL2         0.8440    2.1620   -1.2870 cl        1 CXX      0.063000
     22 H1         -1.4830    0.9170   -0.2330 ha        1 CXX      0.176000
     23 H3          2.1940    2.0460    1.3520 hc        1 CXX      0.211500
     24 H4          2.6450    0.5730    0.4330 hc        1 CXX      0.211500
     25 H51         1.1840   -1.2780    4.1460 hc        1 CXX      0.106667
     26 H61        -0.5550   -0.8220    4.3680 hc        1 CXX      0.106667
     27 H8         -3.3730    3.2700    3.9280 ha        1 CXX      0.170000
     28 H9         -4.1840    4.1840    1.7130 ha        1 CXX      0.180000
     29 H10        -5.3290    2.3520    0.2360 ha        1 CXX      0.194000
     30 H171       -4.5550   -1.9580    1.4420 hc        1 CXX      0.099000
     31 H172       -4.2250   -2.9800   -0.8300 hx        1 CXX      0.117000
     32 H181       -6.3650   -3.1340    0.9100 hx        1 CXX      0.112333
     33 H182       -6.4770   -3.7730   -0.8050 hx        1 CXX      0.112333
     34 H183       -7.0340   -4.8150    0.5840 hx        1 CXX      0.112333
     35 H7         -3.1780    1.2750    5.4110 ha        1 CXX      0.143000
     36 H151       -2.0900   -1.1200    2.7690 hn        1 CXX      0.247000
     37 H152       -2.8020   -1.0350   -0.1220 hx        1 CXX      0.150500
     38 H161       -1.5730   -2.2170    0.5630 hx        1 CXX      0.150500
     39 H162       -3.3420   -3.1080    2.1510 hc        1 CXX      0.099000
     40 H191       -2.9330   -4.0760   -0.1670 hx        1 CXX      0.117000
     41 H192       -3.9530   -6.4420   -0.1440 hx        1 CXX      0.137500
     42 H193       -5.2490   -5.8080   -1.3650 hx        1 CXX      0.137500
     43 H52        -3.0130   -0.4250    4.6870 ha        1 CXX      0.143000
     44 H62        -0.1080   -2.2640    3.3450 hc        1 CXX      0.106667
     45 C15        -2.5000   -1.6170    0.7960 c3        1 CXX     -0.112000
     46 H21        -4.7590   -4.8710    1.3690 hn        1 CXX      0.195000
@<TRIPOS>BOND
     1    1    2 1   
     2    1   12 1   
     3    1   22 1   
     4    2    3 1   
     5    2   21 1   
     6    3    4 1   
     7    3   23 1   
     8    3   24 1   
     9    4   11 1   
    10    5   11 1   
    11    5   25 1   
    12    5   26 1   
    13    5   44 1   
    14    6   16 1   
    15    6   35 1   
    16    6   43 1   
    17    7    8 1   
    18    7   15 1   
    19    7   28 1   
    20    8    9 1   
    21    8   29 1   
    22    9   10 1   
    23   10   16 1   
    24   10   19 1   
    25   11   12 1   
    26   12   19 1   
    27   13   17 1   
    28   13   20 1   
    29   13   31 1   
    30   13   40 1   
    31   14   20 1   
    32   14   32 1   
    33   14   33 1   
    34   14   34 1   
    35   15   16 1   
    36   15   27 1   
    37   17   30 1   
    38   17   39 1   
    39   17   45 1   
    40   18   20 1   
    41   18   41 1   
    42   18   42 1   
    43   19   36 1   
    44   19   45 1   
    45   20   46 1   
    46   37   45 1   
    47   38   45 1   
@<TRIPOS>SUBSTRUCTURE
     1 CXX         1 TEMP              0 ****  ****    0 ROOT
