@<TRIPOS>MOLECULE
CXZ
   48    51     1     0     0
SMALL
bcc


@<TRIPOS>ATOM
      1 C1          0.1070   -1.9480    0.0610 ca        1 CXZ     -0.086000
      2 C2          1.4930   -1.8660    0.1310 ca        1 CXZ     -0.081000
      3 C3          2.0240   -1.3000    1.2870 ca        1 CXZ      0.090100
      4 C4          1.2160   -0.8220    2.3680 ca        1 CXZ     -0.205900
      5 C5         -0.1640   -0.9060    2.2900 ca        1 CXZ     -0.028000
      6 C6         -0.7050   -1.4760    1.1220 ca        1 CXZ     -0.092400
      7 N1         -2.1610   -1.5870    0.9940 n4        1 CXZ     -0.622400
      8 C7         -2.7320   -0.5080    0.1280 c3        1 CXZ      0.089800
      9 C8         -4.2710   -0.6360    0.0030 c3        1 CXZ      0.164800
     10 N2         -4.7630    0.3760   -0.9080 n3        1 CXZ     -0.742600
     11 C9         -5.7940   -0.1150   -1.8160 c3        1 CXZ      0.134300
     12 C10        -6.3230    0.9880   -2.7450 c3        1 CXZ      0.125900
     13 O1         -6.7390    2.1290   -2.0070 os        1 CXZ     -0.395600
     14 C11        -5.6860    2.6650   -1.2170 c3        1 CXZ      0.125900
     15 C12        -5.1390    1.6170   -0.2380 c3        1 CXZ      0.134300
     16 C13         2.2100   -0.3150    3.3340 cc        1 CXZ      0.457500
     17 N3          3.4370   -0.5090    2.8200 nd        1 CXZ     -0.321200
     18 O2          3.3640   -1.0810    1.6210 os        1 CXZ      0.025400
     19 C14         1.8990    0.2890    4.6160 ca        1 CXZ     -0.211900
     20 C15         1.0750   -0.3870    5.5220 ca        1 CXZ     -0.034000
     21 C16         0.7740    0.1630    6.7650 ca        1 CXZ     -0.117600
     22 C17         1.3210    1.4140    7.1290 ca        1 CXZ      0.214100
     23 C18         2.1470    2.1080    6.2330 ca        1 CXZ     -0.248000
     24 C19         2.4320    1.5460    4.9840 ca        1 CXZ      0.215100
     25 O3          3.2050    2.1920    4.0580 oh        1 CXZ     -0.478100
     26 O4          1.0910    2.0330    8.3230 oh        1 CXZ     -0.469100
     27 CL         -0.2350   -0.6910    7.8310 cl        1 CXZ     -0.069400
     28 H1         -0.3510   -2.3880   -0.8410 ha        1 CXZ      0.159000
     29 H2          2.1380   -2.2280   -0.6840 ha        1 CXZ      0.193000
     30 H5         -0.7900   -0.5350    3.1180 ha        1 CXZ      0.166000
     31 HN1        -2.5880   -1.5360    1.9270 hn        1 CXZ      0.451300
     32 H7         -2.2450   -0.5850   -0.8860 hx        1 CXZ      0.116200
     33 H7A        -2.4530    0.4840    0.5820 hx        1 CXZ      0.116200
     34 H8         -4.5200   -1.6620   -0.3930 h1        1 CXZ      0.050200
     35 H8A        -4.7250   -0.5450    1.0340 h1        1 CXZ      0.050200
     36 H9         -6.6660   -0.5520   -1.2480 h1        1 CXZ      0.045950
     37 H9A        -5.3410   -0.9270   -2.4500 h1        1 CXZ      0.045950
     38 H10        -5.5430    1.2820   -3.4950 h1        1 CXZ      0.069200
     39 H10A       -7.2510    0.6340   -3.2660 h1        1 CXZ      0.069200
     40 H11        -6.1600    3.5080   -0.6490 h1        1 CXZ      0.069200
     41 H11A       -4.8700    3.0530   -1.8810 h1        1 CXZ      0.069200
     42 H12        -4.2200    2.0340    0.2580 h1        1 CXZ      0.045950
     43 H12A       -5.9170    1.4340    0.5590 h1        1 CXZ      0.045950
     44 H15         0.6730   -1.3770    5.2510 ha        1 CXZ      0.147000
     45 H18         2.5660    3.0820    6.5300 ha        1 CXZ      0.175000
     46 HO3         3.5790    2.9900    4.4690 ho        1 CXZ      0.444000
     47 HO4         0.5570    1.4470    8.8870 ho        1 CXZ      0.445000
     48 H121       -2.3880   -2.5030    0.5880 hn        1 CXZ      0.451300
@<TRIPOS>BOND
     1    1    2 ar  
     2    1    6 ar  
     3    1   28 1   
     4    2    3 ar  
     5    2   29 1   
     6    3    4 ar  
     7    3   18 1   
     8    4    5 ar  
     9    4   16 1   
    10    5    6 ar  
    11    5   30 1   
    12    6    7 1   
    13    7    8 1   
    14    7   31 1   
    15    7   48 1   
    16    8    9 1   
    17    8   32 1   
    18    8   33 1   
    19    9   10 1   
    20    9   34 1   
    21    9   35 1   
    22   10   11 1   
    23   10   15 1   
    24   11   12 1   
    25   11   36 1   
    26   11   37 1   
    27   12   13 1   
    28   12   38 1   
    29   12   39 1   
    30   13   14 1   
    31   14   15 1   
    32   14   40 1   
    33   14   41 1   
    34   15   42 1   
    35   15   43 1   
    36   16   17 2   
    37   16   19 1   
    38   17   18 1   
    39   19   20 ar  
    40   19   24 ar  
    41   20   21 ar  
    42   20   44 1   
    43   21   22 ar  
    44   21   27 1   
    45   22   23 ar  
    46   22   26 1   
    47   23   24 ar  
    48   23   45 1   
    49   24   25 1   
    50   25   46 1   
    51   26   47 1   
@<TRIPOS>SUBSTRUCTURE
     1 CXZ         1 TEMP              0 ****  ****    0 ROOT
