@<TRIPOS>MOLECULE
CXZ
   47    50     1     0     0
SMALL
bcc


@<TRIPOS>ATOM
      1 C1         -1.3980   -2.1810    0.9610 ca        1 CXZ     -0.149000
      2 C2         -0.4540   -3.2010    1.0260 ca        1 CXZ     -0.081000
      3 C3          0.8530   -2.8590    0.7210 ca        1 CXZ      0.005100
      4 C4          1.2430   -1.5360    0.3600 ca        1 CXZ     -0.177900
      5 C5          0.2960   -0.5290    0.2920 ca        1 CXZ     -0.134000
      6 C6         -1.0490   -0.8480    0.6050 ca        1 CXZ      0.134600
      7 N1         -2.0010    0.1840    0.6420 nh        1 CXZ     -0.727600
      8 C7         -3.3940   -0.1640    0.4660 c3        1 CXZ      0.179800
      9 C8         -4.2600    1.0760    0.1450 c3        1 CXZ      0.162800
     10 N2         -5.6750    0.7430    0.0760 n3        1 CXZ     -0.728600
     11 C9         -6.5230    1.8980    0.3470 c3        1 CXZ      0.132800
     12 C10        -8.0150    1.5710    0.2150 c3        1 CXZ      0.126400
     13 O1         -8.3130    0.9710   -1.0400 os        1 CXZ     -0.413600
     14 C11        -7.5440   -0.2040   -1.2660 c3        1 CXZ      0.126400
     15 C12        -6.0400    0.0780   -1.1690 c3        1 CXZ      0.132800
     16 C13         2.6930   -1.6650    0.1290 cc        1 CXZ      0.412500
     17 N3          3.0510   -2.9430    0.3530 nd        1 CXZ     -0.397200
     18 O2          2.0050   -3.6790    0.6930 os        1 CXZ     -0.003600
     19 C14         3.5780   -0.5720   -0.2330 ca        1 CXZ     -0.223900
     20 C15         3.4360    0.6450    0.4490 ca        1 CXZ     -0.028000
     21 C16         4.2530    1.7320    0.1550 ca        1 CXZ     -0.113600
     22 C17         5.2440    1.6140   -0.8430 ca        1 CXZ      0.184100
     23 C18         5.4010    0.4120   -1.5400 ca        1 CXZ     -0.197000
     24 C19         4.5690   -0.6790   -1.2320 ca        1 CXZ      0.206100
     25 O3          4.8050   -1.7980   -1.9830 oh        1 CXZ     -0.484100
     26 O4          6.0940    2.6270   -1.2010 oh        1 CXZ     -0.483100
     27 CL          4.0450    3.1890    1.0100 cl        1 CXZ     -0.090400
     28 H1         -2.4440   -2.4250    1.2060 ha        1 CXZ      0.146000
     29 H2         -0.7330   -4.2270    1.3040 ha        1 CXZ      0.158000
     30 H5          0.5910    0.4920    0.0080 ha        1 CXZ      0.148000
     31 HN1        -1.7220    0.9930    0.1240 hn        1 CXZ      0.395800
     32 H7         -3.5230   -0.9320   -0.3510 h1        1 CXZ      0.049700
     33 H7A        -3.7550   -0.6240    1.4300 h1        1 CXZ      0.049700
     34 H8         -4.1140    1.8340    0.9670 h1        1 CXZ      0.040200
     35 H8A        -3.8940    1.5420   -0.8180 h1        1 CXZ      0.040200
     36 H9         -6.3250    2.2310    1.4040 h1        1 CXZ      0.041700
     37 H9A        -6.2840    2.7590   -0.3420 h1        1 CXZ      0.041700
     38 H10        -8.3480    0.8930    1.0440 h1        1 CXZ      0.055950
     39 H10A       -8.6180    2.5170    0.2230 h1        1 CXZ      0.055950
     40 H11        -7.8460   -0.9980   -0.5330 h1        1 CXZ      0.055950
     41 H11A       -7.8110   -0.5180   -2.3080 h1        1 CXZ      0.055950
     42 H12        -5.7330    0.6860   -2.0700 h1        1 CXZ      0.041700
     43 H12A       -5.4910   -0.9040   -1.2100 h1        1 CXZ      0.041700
     44 H15         2.6660    0.7320    1.2340 ha        1 CXZ      0.158000
     45 H18         6.1700    0.3170   -2.3190 ha        1 CXZ      0.177000
     46 HO3         4.1810   -2.4950   -1.7340 ho        1 CXZ      0.442000
     47 HO4         5.9080    3.3980   -0.6400 ho        1 CXZ      0.434000
@<TRIPOS>BOND
     1    1    2 ar  
     2    1    6 ar  
     3    1   28 1   
     4    2    3 ar  
     5    2   29 1   
     6    3    4 ar  
     7    3   18 1   
     8    4    5 ar  
     9    4   16 1   
    10    5    6 ar  
    11    5   30 1   
    12    6    7 1   
    13    7    8 1   
    14    7   31 1   
    15    8    9 1   
    16    8   32 1   
    17    8   33 1   
    18    9   10 1   
    19    9   34 1   
    20    9   35 1   
    21   10   11 1   
    22   10   15 1   
    23   11   12 1   
    24   11   36 1   
    25   11   37 1   
    26   12   13 1   
    27   12   38 1   
    28   12   39 1   
    29   13   14 1   
    30   14   15 1   
    31   14   40 1   
    32   14   41 1   
    33   15   42 1   
    34   15   43 1   
    35   16   17 2   
    36   16   19 1   
    37   17   18 1   
    38   19   20 ar  
    39   19   24 ar  
    40   20   21 ar  
    41   20   44 1   
    42   21   22 ar  
    43   21   27 1   
    44   22   23 ar  
    45   22   26 1   
    46   23   24 ar  
    47   23   45 1   
    48   24   25 1   
    49   25   46 1   
    50   26   47 1   
@<TRIPOS>SUBSTRUCTURE
     1 CXZ         1 TEMP              0 ****  ****    0 ROOT
