@<TRIPOS>MOLECULE
CXZ
   47    42     1     0     0
SMALL
bcc


@<TRIPOS>ATOM
      1 C1          1.4680    0.2030   -1.8940 c1        1 CXZ     -0.150000
      2 C2          2.8660    0.1830   -1.8440 c1        1 CXZ     -0.108500
      3 C3          3.5200    0.1970   -0.6190 c1        1 CXZ     -0.065500
      4 C4          2.7970    0.2290    0.5440 c1        1 CXZ     -0.065500
      5 C5          1.3830    0.2480    0.4970 c1        1 CXZ     -0.108500
      6 C6          0.7350    0.2350   -0.7220 c1        1 CXZ      0.048000
      7 N1         -0.6660    0.0990   -0.5910 n3        1 CXZ     -0.281000
      8 C7         -1.5520    0.4940   -1.7130 c3        1 CXZ     -0.059000
      9 C8         -2.9940    0.0440   -1.4200 c3        1 CXZ     -0.076000
     10 N2         -3.7660    0.0060   -2.6850 n3        1 CXZ     -0.251000
     11 C9         -4.2820   -1.3380   -2.8860 c3        1 CXZ     -0.106000
     12 C10        -5.2020   -1.4250   -4.0640 c3        1 CXZ     -0.024000
     13 O1         -6.2120   -0.4620   -4.0200 os        1 CXZ     -0.270000
     14 C11        -5.7030    0.8710   -3.8190 c3        1 CXZ     -0.024000
     15 C12        -4.7800    0.9630   -2.6410 c3        1 CXZ     -0.106000
     16 C13         3.6930    0.2330    1.6000 c1        1 CXZ     -0.040000
     17 N3          4.9390    0.2040    1.0900 n2        1 CXZ      0.030000
     18 O2          4.8370    0.1810   -0.2950 o         1 CXZ     -0.062000
     19 C14         3.9320    0.1740    3.0080 c1        1 CXZ     -0.079000
     20 C15         3.8980    1.3440    3.7650 c1        1 CXZ     -0.033000
     21 C16         3.9940    1.2850    5.1460 c1        1 CXZ     -0.193000
     22 C17         4.1280    0.0410    5.7920 c1        1 CXZ      0.145000
     23 C18         4.1620   -1.1310    5.0430 c1        1 CXZ     -0.253000
     24 C19         4.0650   -1.0690    3.6470 c1        1 CXZ      0.154000
     25 O3          4.0910   -2.2320    2.8950 oh        1 CXZ     -0.223000
     26 O4          4.1940   -0.0190    7.2500 oh        1 CXZ     -0.239000
     27 CL          3.8510    2.7570    6.0940 cl        1 CXZ     -0.012000
     28 H1          0.9950    0.1940   -2.7890 ha        1 CXZ      0.143000
     29 H2          3.3830    0.1610   -2.6680 ha        1 CXZ      0.150000
     30 H5          0.8580    0.2700    1.3400 ha        1 CXZ      0.150000
     31 HN1        -1.0160   -0.1360    0.1870 hn        1 CXZ      0.188000
     32 H7         -1.5290    1.4300   -1.8140 h1        1 CXZ      0.089500
     33 H7A        -1.2560    0.0880   -2.5020 h1        1 CXZ      0.089500
     34 H8         -2.9800   -0.8440   -1.0280 h1        1 CXZ      0.079000
     35 H8A        -3.4410    0.7140   -0.7520 h1        1 CXZ      0.079000
     36 H9         -4.7750   -1.6180   -2.0760 h1        1 CXZ      0.081500
     37 H9A        -3.5640   -1.9210   -3.0190 h1        1 CXZ      0.081500
     38 H10        -5.6140   -2.3110   -4.0800 h1        1 CXZ      0.094750
     39 H10A       -4.6910   -1.3050   -4.8690 h1        1 CXZ      0.094750
     40 H11        -5.2150    1.1500   -4.6260 h1        1 CXZ      0.094750
     41 H11A       -6.4780    1.4940   -3.6740 h1        1 CXZ      0.094750
     42 H12        -4.3740    1.8550   -2.6280 h1        1 CXZ      0.081500
     43 H12A       -5.2930    0.8420   -1.8310 h1        1 CXZ      0.081500
     44 H15         3.8060    2.1960    3.3260 ha        1 CXZ      0.158000
     45 H18         4.2570   -2.0080    5.4970 ha        1 CXZ      0.161000
     46 HO3         4.5430   -2.8470    3.3230 ho        1 CXZ      0.226000
     47 HO4         4.9880    0.2830    7.5250 ho        1 CXZ      0.234000
@<TRIPOS>BOND
     1    1    6 1   
     2    1   28 1   
     3    2    3 1   
     4    2   29 1   
     5    4    5 1   
     6    5   30 1   
     7    6    7 1   
     8    7    8 1   
     9    7   31 1   
    10    8    9 1   
    11    8   32 1   
    12    8   33 1   
    13    9   10 1   
    14    9   34 1   
    15    9   35 1   
    16   10   11 1   
    17   10   15 1   
    18   11   12 1   
    19   11   36 1   
    20   11   37 1   
    21   12   13 1   
    22   12   38 1   
    23   12   39 1   
    24   13   14 1   
    25   14   15 1   
    26   14   40 1   
    27   14   41 1   
    28   15   42 1   
    29   15   43 1   
    30   16   17 1   
    31   16   19 1   
    32   17   18 1   
    33   19   24 1   
    34   20   21 1   
    35   20   44 1   
    36   21   27 1   
    37   22   23 1   
    38   22   26 1   
    39   23   45 1   
    40   24   25 1   
    41   25   46 1   
    42   26   47 1   
@<TRIPOS>SUBSTRUCTURE
     1 CXZ         1 TEMP              0 ****  ****    0 ROOT
