@<TRIPOS>MOLECULE
CXZ
   47    50     1     0     0
SMALL
bcc


@<TRIPOS>ATOM
      1 C1          0.1240   -0.4510   -0.0450 ca        1 CXZ     -0.151000
      2 C2          1.5110   -0.3410   -0.0260 ca        1 CXZ     -0.083000
      3 C3          2.1070   -0.1980    1.2160 ca        1 CXZ      0.006100
      4 C4          1.3620   -0.1620    2.4310 ca        1 CXZ     -0.176900
      5 C5         -0.0180   -0.2660    2.4020 ca        1 CXZ     -0.135000
      6 C6         -0.6540   -0.4210    1.1450 ca        1 CXZ      0.128600
      7 N1         -2.0440   -0.6320    1.1080 nu        1 CXZ     -0.724600
      8 C7         -2.7500   -0.2830   -0.1050 c3        1 CXZ      0.178800
      9 C8         -4.2760   -0.1800    0.1260 c3        1 CXZ      0.162800
     10 N2         -4.9980    0.0520   -1.1160 n3        1 CXZ     -0.727600
     11 C9         -6.3880   -0.3810   -1.0270 c3        1 CXZ      0.132300
     12 C10        -7.1770   -0.0820   -2.3070 c3        1 CXZ      0.126400
     13 O1         -7.0660    1.2840   -2.6870 os        1 CXZ     -0.413600
     14 C11        -5.7100    1.6830   -2.8540 c3        1 CXZ      0.126400
     15 C12        -4.8840    1.4260   -1.5890 c3        1 CXZ      0.132300
     16 C13         2.4060    0.0080    3.4580 cc        1 CXZ      0.415500
     17 N3          3.6060    0.0540    2.8510 nd        1 CXZ     -0.357200
     18 O2          3.4760   -0.0600    1.5380 os        1 CXZ     -0.008600
     19 C14         2.1620    0.0920    4.8870 ca        1 CXZ     -0.163900
     20 C15         1.3030   -0.8330    5.4890 ca        1 CXZ     -0.033000
     21 C16         1.0490   -0.7920    6.8600 ca        1 CXZ     -0.113600
     22 C17         1.6670    0.1910    7.6570 ca        1 CXZ      0.190100
     23 C18         2.5260    1.1330    7.0740 ca        1 CXZ     -0.253000
     24 C19         2.7670    1.0810    5.6950 ca        1 CXZ      0.198100
     25 O3          3.5760    1.9970    5.0770 oh        1 CXZ     -0.470100
     26 O4          1.4840    0.3100    9.0100 oh        1 CXZ     -0.486100
     27 Cl         -0.0030   -1.9390    7.5480 cl        1 CXZ     -0.089400
     28 H1         -0.3740   -0.5740   -1.0200 ha        1 CXZ      0.144000
     29 H2          2.1030   -0.3670   -0.9510 ha        1 CXZ      0.156000
     30 H5         -0.5960   -0.2340    3.3370 ha        1 CXZ      0.144000
     31 HN1        -2.5050   -0.3180    1.9390 hn        1 CXZ      0.391800
     32 H7         -2.3710    0.6910   -0.5350 h1        1 CXZ      0.049200
     33 H7A        -2.5470   -1.0930   -0.8620 h1        1 CXZ      0.049200
     34 H8         -4.4780    0.6330    0.8850 h1        1 CXZ      0.039700
     35 H8A        -4.6350   -1.1540    0.5670 h1        1 CXZ      0.039700
     36 H9         -6.3920   -1.4940   -0.8600 h1        1 CXZ      0.041700
     37 H9A        -6.9200    0.1060   -0.1590 h1        1 CXZ      0.041700
     38 H10        -6.8280   -0.7360   -3.1500 h1        1 CXZ      0.055950
     39 H10A       -8.2730   -0.2350   -2.1280 h1        1 CXZ      0.055950
     40 H11        -5.7660    2.7830   -3.0620 h1        1 CXZ      0.055950
     41 H11A       -5.2660    1.1450   -3.7330 h1        1 CXZ      0.055950
     42 H12        -3.8020    1.6210   -1.8270 h1        1 CXZ      0.041700
     43 H12A       -5.2060    2.1660   -0.7980 h1        1 CXZ      0.041700
     44 H15         0.8260   -1.6070    4.8640 ha        1 CXZ      0.161000
     45 H18         2.9980    1.8970    7.7070 ha        1 CXZ      0.161000
     46 HO3         3.9580    2.5740    5.7580 ho        1 CXZ      0.427000
     47 HO4         0.8890   -0.3990    9.3040 ho        1 CXZ      0.436000
@<TRIPOS>BOND
     1    1    2 ar  
     2    1    6 ar  
     3    1   28 1   
     4    2    3 ar  
     5    2   29 1   
     6    3    4 ar  
     7    3   18 1   
     8    4    5 ar  
     9    4   16 1   
    10    5    6 ar  
    11    5   30 1   
    12    6    7 1   
    13    7    8 1   
    14    7   31 1   
    15    8    9 1   
    16    8   32 1   
    17    8   33 1   
    18    9   10 1   
    19    9   34 1   
    20    9   35 1   
    21   10   11 1   
    22   10   15 1   
    23   11   12 1   
    24   11   36 1   
    25   11   37 1   
    26   12   13 1   
    27   12   38 1   
    28   12   39 1   
    29   13   14 1   
    30   14   15 1   
    31   14   40 1   
    32   14   41 1   
    33   15   42 1   
    34   15   43 1   
    35   16   17 2   
    36   16   19 1   
    37   17   18 1   
    38   19   20 ar  
    39   19   24 ar  
    40   20   21 ar  
    41   20   44 1   
    42   21   22 ar  
    43   21   27 1   
    44   22   23 ar  
    45   22   26 1   
    46   23   24 ar  
    47   23   45 1   
    48   24   25 1   
    49   25   46 1   
    50   26   47 1   
@<TRIPOS>SUBSTRUCTURE
     1 CXZ         1 TEMP              0 ****  ****    0 ROOT
