@<TRIPOS>MOLECULE
CY0
   49    51     1     0     0
SMALL
bcc


@<TRIPOS>ATOM
      1 CAI         6.2460   -3.4500   -0.9150 ca        1 CY0     -0.148000
      2 CAF         7.5480   -3.8630   -1.1710 ca        1 CY0     -0.118500
      3 CAE         8.5970   -2.9440   -1.1720 ca        1 CY0     -0.161000
      4 CAG         8.3290   -1.5990   -0.9270 ca        1 CY0     -0.118500
      5 CAJ         7.0310   -1.1610   -0.6790 ca        1 CY0     -0.148000
      6 CAX         5.9650   -2.0850   -0.6570 ca        1 CY0      0.163600
      7 NAT         4.6250   -1.6980   -0.4690 nh        1 CY0     -0.738300
      8 C6          4.1660   -0.8080    0.4990 ca        1 CY0      0.706200
      9 C5          2.7120   -0.6660    0.6860 ca        1 CY0     -0.254600
     10 CAM         1.7590   -1.4420    0.0070 ca        1 CY0     -0.160000
     11 N1          5.0310   -0.0660    1.2260 nb        1 CY0     -0.793000
     12 C2          4.4780    0.8380    2.1060 ca        1 CY0      0.643900
     13 N3          3.1950    1.0870    2.3450 nb        1 CY0     -0.719000
     14 C4          2.2860    0.3240    1.6250 ca        1 CY0      0.390600
     15 CAL         0.8870    0.5160    1.8170 ca        1 CY0     -0.179300
     16 CAK        -0.0360   -0.2500    1.1480 ca        1 CY0     -0.124000
     17 CAY         0.3860   -1.2670    0.2420 ca        1 CY0      0.084600
     18 NAS        -0.5060   -2.1220   -0.4090 n         1 CY0     -0.461100
     19 CAW        -1.8040   -1.8310   -0.7910 c         1 CY0      0.669100
     20 OAC        -2.4660   -0.8840   -0.3170 o         1 CY0     -0.640100
     21 CAO        -2.3950   -2.7660   -1.8420 c3        1 CY0     -0.150400
     22 CAN        -1.8450   -2.4120   -3.2030 c3        1 CY0     -0.007300
     23 SAU        -2.1400   -3.6840   -4.4040 ss        1 CY0     -0.367200
     24 CB         -0.5090   -4.2990   -4.7750 c3        1 CY0      0.023700
     25 CA          0.0890   -5.2890   -3.7810 c3        1 CY0      0.047500
     26 C           0.4550   -4.5360   -2.4770 c         1 CY0      0.868600
     27 O          -0.0170   -4.9390   -1.3720 o         1 CY0     -0.855300
     28 N          -0.7300   -6.4770   -3.5910 n3        1 CY0     -0.893800
     29 OXT         1.1970   -3.5080   -2.5440 o         1 CY0     -0.855300
     30 HAI         5.4330   -4.1930   -0.9240 ha        1 CY0      0.149500
     31 HAF         7.7480   -4.9260   -1.3720 ha        1 CY0      0.124500
     32 HAE         9.6250   -3.2780   -1.3680 ha        1 CY0      0.121000
     33 HAG         9.1500   -0.8670   -0.9330 ha        1 CY0      0.124500
     34 HAJ         6.8530   -0.0890   -0.5050 ha        1 CY0      0.149500
     35 HAT         3.9480   -2.3420   -0.8280 hn        1 CY0      0.463800
     36 HAM         2.0480   -2.2100   -0.7380 ha        1 CY0      0.185000
     37 H2          5.2240    1.4250    2.6790 h5        1 CY0      0.034100
     38 HAL         0.5490    1.2930    2.5200 ha        1 CY0      0.141000
     39 HAK        -1.1160   -0.0820    1.3020 ha        1 CY0      0.168000
     40 HAS        -0.0770   -2.9410   -0.8320 hn        1 CY0      0.391500
     41 HAO1       -3.5090   -2.6530   -1.8210 hc        1 CY0      0.088200
     42 HAO2       -2.1370   -3.8350   -1.5930 hc        1 CY0      0.088200
     43 HAN1       -2.3370   -1.4850   -3.5870 h1        1 CY0      0.085700
     44 HAN2       -0.7380   -2.2310   -3.1400 h1        1 CY0      0.085700
     45 HBC1       -0.6360   -4.7820   -5.7760 h1        1 CY0      0.072700
     46 HBC2        0.2020   -3.4410   -4.8630 h1        1 CY0      0.072700
     47 HA          1.0690   -5.6470   -4.2220 h1        1 CY0      0.057700
     48 HN1        -1.6930   -6.1980   -3.5130 hn        1 CY0      0.345300
     49 HN2        -0.4720   -6.8930   -2.7120 hn        1 CY0      0.345300
@<TRIPOS>BOND
     1    1    2 ar  
     2    1    6 ar  
     3    1   30 1   
     4    2    3 ar  
     5    2   31 1   
     6    3    4 ar  
     7    3   32 1   
     8    4    5 ar  
     9    4   33 1   
    10    5    6 ar  
    11    5   34 1   
    12    6    7 1   
    13    7    8 1   
    14    7   35 1   
    15    8    9 ar  
    16    8   11 ar  
    17    9   10 ar  
    18    9   14 ar  
    19   10   17 ar  
    20   10   36 1   
    21   11   12 ar  
    22   12   13 ar  
    23   12   37 1   
    24   13   14 ar  
    25   14   15 ar  
    26   15   16 ar  
    27   15   38 1   
    28   16   17 ar  
    29   16   39 1   
    30   17   18 1   
    31   18   19 1   
    32   18   40 1   
    33   19   20 2   
    34   19   21 1   
    35   21   22 1   
    36   21   41 1   
    37   21   42 1   
    38   22   23 1   
    39   22   43 1   
    40   22   44 1   
    41   23   24 1   
    42   24   25 1   
    43   24   45 1   
    44   24   46 1   
    45   25   26 1   
    46   25   28 1   
    47   25   47 1   
    48   26   27 1   
    49   26   29 1   
    50   28   48 1   
    51   28   49 1   
@<TRIPOS>SUBSTRUCTURE
     1 CY0         1 TEMP              0 ****  ****    0 ROOT
