@<TRIPOS>MOLECULE
CY1
   23    22     1     0     0
SMALL
bcc


@<TRIPOS>ATOM
      1 N           1.0480   -1.1210   -2.1950 n3        1 CY1     -0.879800
      2 CA          0.3790   -0.4970   -1.0600 c3        1 CY1      0.019500
      3 CB          0.7700    0.9690   -0.8850 c3        1 CY1      0.043700
      4 SG          1.9290    1.2440    0.4420 ss        1 CY1     -0.432200
      5 CD          0.8810    1.6560    1.8520 c3        1 CY1      0.197100
      6 NE         -0.2090    0.7850    2.1030 n         1 CY1     -0.557900
      7 CZ         -0.2340   -0.0980    3.1660 c         1 CY1      0.659100
      8 OAC         0.5860   -0.0220    4.1090 o         1 CY1     -0.661100
      9 CM         -1.3490   -1.1170    3.1740 c3        1 CY1     -0.178100
     10 C          -1.1810   -0.5990   -1.1170 c         1 CY1      0.885600
     11 O          -1.7260   -0.9310   -2.2030 o         1 CY1     -0.841800
     12 OXT        -1.8230   -0.3600   -0.0490 o         1 CY1     -0.841800
     13 H           0.6950   -0.7000   -3.0380 hn        1 CY1      0.333300
     14 H2          0.7630   -2.0850   -2.2200 hn        1 CY1      0.333300
     15 HA          0.7030   -1.0610   -0.1370 h1        1 CY1      0.063700
     16 HB2        -0.1480    1.5770   -0.6960 h1        1 CY1      0.068200
     17 HB3         1.2800    1.3750   -1.7930 h1        1 CY1      0.068200
     18 HD2         0.4770    2.6880    1.6670 h2        1 CY1      0.068700
     19 HD3         1.5890    1.6780    2.7240 h2        1 CY1      0.068700
     20 HE         -0.8190    0.5840    1.3210 hn        1 CY1      0.374500
     21 HM1        -2.2100   -0.7020    3.7500 hc        1 CY1      0.069367
     22 HM2        -1.6950   -1.3660    2.1360 hc        1 CY1      0.069367
     23 HM3        -0.9830   -2.0420    3.6800 hc        1 CY1      0.069367
@<TRIPOS>BOND
     1    1    2 1   
     2    1   13 1   
     3    1   14 1   
     4    2    3 1   
     5    2   10 1   
     6    2   15 1   
     7    3    4 1   
     8    3   16 1   
     9    3   17 1   
    10    4    5 1   
    11    5    6 1   
    12    5   18 1   
    13    5   19 1   
    14    6    7 1   
    15    6   20 1   
    16    7    8 2   
    17    7    9 1   
    18    9   21 1   
    19    9   22 1   
    20    9   23 1   
    21   10   11 1   
    22   10   12 1   
@<TRIPOS>SUBSTRUCTURE
     1 CY1         1 TEMP              0 ****  ****    0 ROOT
