@<TRIPOS>MOLECULE
CY3
   15    14     1     0     0
SMALL
bcc


@<TRIPOS>ATOM
      1 N          -1.5960   -0.4210   -0.3560 n3        1 CY3     -0.905800
      2 CA         -0.1740   -0.3830   -0.3290 c3        1 CY3      0.095500
      3 C           0.3030   -0.3520    1.1050 c         1 CY3      0.655100
      4 O          -0.0820    0.5240    1.8540 o         1 CY3     -0.620100
      5 CB          0.3110    0.8550   -1.0480 c3        1 CY3     -0.037300
      6 SG         -0.4820    2.2850   -0.3630 sh        1 CY3     -0.373900
      7 N1          1.1990   -1.3450    1.5770 n         1 CY3     -0.657000
      8 H          -1.8890   -1.1810    0.0640 hn        1 CY3      0.364300
      9 H2         -1.8850   -0.4210   -1.2250 hn        1 CY3      0.364300
     10 HA          0.1820   -1.1780   -0.7730 h1        1 CY3      0.076700
     11 HB2         0.0930    0.7860   -1.9990 h1        1 CY3      0.098700
     12 HB3         1.2800    0.9360   -0.9400 h1        1 CY3      0.098700
     13 HG         -0.2360    3.2260   -1.0270 hs        1 CY3      0.203800
     14 HN11        1.4880   -1.3260    2.4440 hn        1 CY3      0.318500
     15 HN12        1.4880   -2.0040    1.0140 hn        1 CY3      0.318500
@<TRIPOS>BOND
     1    1    2 1   
     2    1    8 1   
     3    1    9 1   
     4    2    3 1   
     5    2    5 1   
     6    2   10 1   
     7    3    4 2   
     8    3    7 1   
     9    5    6 1   
    10    5   11 1   
    11    5   12 1   
    12    6   13 1   
    13    7   14 1   
    14    7   15 1   
@<TRIPOS>SUBSTRUCTURE
     1 CY3         1 TEMP              0 ****  ****    0 ROOT
