@<TRIPOS>MOLECULE
CY3
   15    14     1     0     0
SMALL
bcc


@<TRIPOS>ATOM
      1 N           1.1270    0.8750    0.1130 n3        1 CY3     -0.907800
      2 CA         -0.2150    0.3310    0.0840 c3        1 CY3      0.108500
      3 C          -0.6480   -0.1690    1.4820 c         1 CY3      0.656100
      4 O          -1.1560   -1.2980    1.6370 o         1 CY3     -0.622100
      5 CB         -0.4530   -0.8060   -0.9120 c3        1 CY3     -0.025300
      6 SG         -0.1800   -0.1590   -2.5380 sh        1 CY3     -0.400900
      7 N1         -0.5120    0.6910    2.5370 n         1 CY3     -0.654000
      8 H           1.3490    1.2790   -0.7780 hn        1 CY3      0.364800
      9 H2          1.7960    0.1610    0.3230 hn        1 CY3      0.364800
     10 HA         -0.9150    1.1810   -0.1880 h1        1 CY3      0.091700
     11 HB2         0.2280   -1.6650   -0.7010 h1        1 CY3      0.084700
     12 HB3        -1.5020   -1.1770   -0.8030 h1        1 CY3      0.084700
     13 HG         -0.2810   -1.2830   -3.2280 hs        1 CY3      0.218800
     14 HN11       -0.7500    0.3830    3.4470 hn        1 CY3      0.317500
     15 HN12       -0.0170    1.5410    2.4360 hn        1 CY3      0.317500
@<TRIPOS>BOND
     1    1    2 1   
     2    1    8 1   
     3    1    9 1   
     4    2    3 1   
     5    2    5 1   
     6    2   10 1   
     7    3    4 2   
     8    3    7 1   
     9    5    6 1   
    10    5   11 1   
    11    5   12 1   
    12    6   13 1   
    13    7   14 1   
    14    7   15 1   
@<TRIPOS>SUBSTRUCTURE
     1 CY3         1 TEMP              0 ****  ****    0 ROOT
