@<TRIPOS>MOLECULE
CY4
   24    23     1     0     0
SMALL
bcc


@<TRIPOS>ATOM
      1 O           8.2640   -2.4510    3.1950 o         1 CY4     -0.835300
      2 C           7.3680   -2.3390    4.0770 c         1 CY4      0.888600
      3 CA          6.6670   -0.9440    4.2340 c3        1 CY4      0.021500
      4 N           6.9760    0.0170    3.1870 n3        1 CY4     -0.892800
      5 CB          5.1770   -1.1370    4.4790 c3        1 CY4      0.005700
      6 SG          4.2450   -1.4500    2.9900 ss        1 CY4     -0.215700
      7 CA1         2.9710   -0.3220    2.9980 c         1 CY4      0.546700
      8 CA2         2.1520   -0.4620    1.7400 c3        1 CY4     -0.172400
      9 OA1         2.6890    0.5180    3.8660 o         1 CY4     -0.566100
     10 CA3         0.6790   -0.6180    2.0540 c3        1 CY4     -0.074400
     11 CA4        -0.1500   -0.6330    0.7960 c3        1 CY4     -0.090100
     12 OXT         7.0180   -3.2550    4.8720 o         1 CY4     -0.835300
     13 HA          7.0900   -0.5120    5.1920 h1        1 CY4      0.051700
     14 H           6.4690   -0.2370    2.3560 hn        1 CY4      0.339300
     15 H2          7.9540   -0.0900    2.9680 hn        1 CY4      0.339300
     16 HB2         4.7360   -0.2480    4.9900 h1        1 CY4      0.087200
     17 HB3         5.0610   -2.0440    5.1280 h1        1 CY4      0.087200
     18 HA22        2.3130    0.4610    1.1210 hc        1 CY4      0.065700
     19 HA23        2.5130   -1.3410    1.1420 hc        1 CY4      0.065700
     20 HA32        0.5180   -1.5710    2.6240 hc        1 CY4      0.050200
     21 HA33        0.3550    0.2260    2.7190 hc        1 CY4      0.050200
     22 HA41       -1.2310   -0.7610    1.0470 hc        1 CY4      0.028367
     23 HA42       -0.0300    0.3240    0.2330 hc        1 CY4      0.028367
     24 HA43        0.1600   -1.4730    0.1290 hc        1 CY4      0.028367
@<TRIPOS>BOND
     1    1    2 1   
     2    2    3 1   
     3    2   12 1   
     4    3    4 1   
     5    3    5 1   
     6    3   13 1   
     7    4   14 1   
     8    4   15 1   
     9    5    6 1   
    10    5   16 1   
    11    5   17 1   
    12    6    7 1   
    13    7    8 1   
    14    7    9 2   
    15    8   10 1   
    16    8   18 1   
    17    8   19 1   
    18   10   11 1   
    19   10   20 1   
    20   10   21 1   
    21   11   22 1   
    22   11   23 1   
    23   11   24 1   
@<TRIPOS>SUBSTRUCTURE
     1 CY4         1 TEMP              0 ****  ****    0 ROOT
