@<TRIPOS>MOLECULE
CY6
   82    83     1     0     0
SMALL
bcc


@<TRIPOS>ATOM
      1 C5         -8.4330   -3.7190   -3.3980 c3        1 CY6     -0.140400
      2 C6         -7.6850   -2.7820   -2.5650 cc        1 CY6      0.258000
      3 O7         -8.1450   -2.6130   -1.2270 os        1 CY6     -0.111100
      4 N8         -7.3890   -1.7510   -0.5940 nc        1 CY6     -0.332300
      5 C9         -6.4240   -1.3120   -1.4320 cd        1 CY6      0.263800
      6 C10        -6.5860   -1.9640   -2.7310 cd        1 CY6     -0.311600
      7 C11        -5.3480   -0.3280   -1.1480 c         1 CY6      0.597600
      8 O12        -4.5420   -0.0070   -2.0450 o         1 CY6     -0.602100
      9 N13        -5.2870    0.2120    0.1170 n         1 CY6     -0.547900
     10 C14        -4.2770    1.1730    0.4870 c3        1 CY6      0.007700
     11 C15        -4.8320    2.3260    1.3580 c3        1 CY6     -0.073700
     12 C16        -3.7180    3.3030    1.6730 c3        1 CY6     -0.095600
     13 C17        -5.9690    3.0400    0.6600 c3        1 CY6     -0.095600
     14 C18        -3.1340    0.4930    1.2630 c         1 CY6      0.554100
     15 O19        -3.3470   -0.1310    2.3050 o         1 CY6     -0.530100
     16 C20        -1.7810    0.6670    0.6430 c3        1 CY6     -0.185400
     17 C21        -0.6740   -0.0650    1.3930 c3        1 CY6     -0.118700
     18 C22        -0.7010   -1.5450    1.0410 c3        1 CY6     -0.053200
     19 C23         0.0730   -2.3800    1.9890 c2        1 CY6     -0.194200
     20 C24         0.8310   -3.4320    1.6410 c2        1 CY6     -0.116400
     21 C25         1.0180   -3.8680    0.2360 c3        1 CY6     -0.064400
     22 C26         1.5360   -4.2460    2.6630 c3        1 CY6     -0.064400
     23 C29         0.6470    0.6550    1.1270 c         1 CY6      0.660100
     24 O30         0.6960    1.9040    1.1700 o         1 CY6     -0.622100
     25 N31         1.7760   -0.0830    0.8510 n         1 CY6     -0.564900
     26 C32         3.0620    0.5480    0.6260 c3        1 CY6      0.120900
     27 C33         4.0020   -0.3930   -0.0820 c2        1 CY6     -0.106200
     28 C34         4.7050   -0.0140   -1.1550 ce        1 CY6     -0.196200
     29 C35         5.6280   -0.9430   -1.8180 c         1 CY6      0.628300
     30 O36         5.9100   -2.1070   -1.5100 o         1 CY6     -0.557000
     31 O37         6.2320   -0.4020   -2.9190 os        1 CY6     -0.431900
     32 C38         7.1460   -1.2550   -3.6310 c3        1 CY6      0.139400
     33 C39         7.6640   -0.4410   -4.7920 c3        1 CY6     -0.101100
     34 C40         3.7190    1.0400    1.9330 c3        1 CY6     -0.085400
     35 C41         5.0180    1.7800    1.6960 c3        1 CY6     -0.139700
     36 C42         5.6510    2.2360    3.0200 c3        1 CY6     -0.092400
     37 C43         5.7390    3.7770    2.9450 c3        1 CY6      0.093000
     38 N44         5.2630    4.1550    1.6370 n         1 CY6     -0.583900
     39 C45         4.8310    3.0740    0.8890 c         1 CY6      0.703500
     40 O46         4.4090    3.1600   -0.2750 o         1 CY6     -0.637500
     41 H51        -7.9770   -3.7680   -4.4180 hc        1 CY6      0.068700
     42 H52        -8.4200   -4.7410   -2.9420 hc        1 CY6      0.068700
     43 H53        -9.5000   -3.3900   -3.4900 hc        1 CY6      0.068700
     44 H10        -5.9520   -1.8000   -3.5970 ha        1 CY6      0.196000
     45 H13        -5.8920   -0.1060    0.8380 hn        1 CY6      0.337500
     46 H14        -3.8530    1.6190   -0.4640 h1        1 CY6      0.100700
     47 H15        -5.2100    1.8870    2.3250 hc        1 CY6      0.064700
     48 H161       -3.2740    3.7160    0.7350 hc        1 CY6      0.042200
     49 H162       -4.1180    4.1530    2.2780 hc        1 CY6      0.042200
     50 H163       -2.9090    2.8050    2.2620 hc        1 CY6      0.042200
     51 H171       -6.8620    2.3770    0.5630 hc        1 CY6      0.042200
     52 H172       -6.2690    3.9420    1.2470 hc        1 CY6      0.042200
     53 H173       -5.6590    3.3700   -0.3610 hc        1 CY6      0.042200
     54 H201       -1.5570    1.7720    0.6200 hc        1 CY6      0.097700
     55 H202       -1.8280    0.3090   -0.4210 hc        1 CY6      0.097700
     56 H21        -0.8610    0.0450    2.5020 hc        1 CY6      0.094700
     57 H221       -1.7760   -1.8850    1.0870 hc        1 CY6      0.063200
     58 H222       -0.3550   -1.6940   -0.0170 hc        1 CY6      0.063200
     59 H23        -0.0390   -2.1030    3.0510 ha        1 CY6      0.129000
     60 H251        1.5270   -3.0680   -0.3590 hc        1 CY6      0.044867
     61 H252        1.6410   -4.7940    0.1790 hc        1 CY6      0.044867
     62 H253        0.0290   -4.0820   -0.2430 hc        1 CY6      0.044867
     63 H261        1.3850   -3.8410    3.6930 hc        1 CY6      0.044867
     64 H262        1.1570   -5.2980    2.6380 hc        1 CY6      0.044867
     65 H263        2.6340   -4.2670    2.4470 hc        1 CY6      0.044867
     66 H31         1.7620   -1.0700    0.9620 hn        1 CY6      0.322500
     67 H32         2.8780    1.4670   -0.0200 h1        1 CY6      0.116700
     68 H33         4.0960   -1.4120    0.3330 ha        1 CY6      0.141000
     69 H34         4.6410    1.0020   -1.5870 ha        1 CY6      0.185000
     70 H381        6.5930   -2.1690   -3.9730 h1        1 CY6      0.050200
     71 H382        7.9680   -1.5640   -2.9330 h1        1 CY6      0.050200
     72 H391        8.3820   -1.0610   -5.3790 hc        1 CY6      0.048700
     73 H392        6.8240   -0.1250   -5.4550 hc        1 CY6      0.048700
     74 H393        8.1850    0.4760   -4.4260 hc        1 CY6      0.048700
     75 H401        2.9900    1.7170    2.4560 hc        1 CY6      0.060700
     76 H402        3.9260    0.1670    2.6060 hc        1 CY6      0.060700
     77 H41         5.7260    1.1250    1.1200 hc        1 CY6      0.085700
     78 H421        5.0310    1.9270    3.8960 hc        1 CY6      0.058700
     79 H422        6.6690    1.7950    3.1410 hc        1 CY6      0.058700
     80 H431        5.1090    4.2510    3.7470 h1        1 CY6      0.042700
     81 H432        6.7990    4.1230    3.0850 h1        1 CY6      0.042700
     82 H44         5.1750    5.0950    1.3550 hn        1 CY6      0.334500
@<TRIPOS>BOND
     1    1    2 1   
     2    1   41 1   
     3    1   42 1   
     4    1   43 1   
     5    2    3 1   
     6    2    6 2   
     7    3    4 1   
     8    4    5 2   
     9    5    6 1   
    10    5    7 1   
    11    6   44 1   
    12    7    8 2   
    13    7    9 1   
    14    9   10 1   
    15    9   45 1   
    16   10   11 1   
    17   10   14 1   
    18   10   46 1   
    19   11   12 1   
    20   11   13 1   
    21   11   47 1   
    22   12   48 1   
    23   12   49 1   
    24   12   50 1   
    25   13   51 1   
    26   13   52 1   
    27   13   53 1   
    28   14   15 2   
    29   14   16 1   
    30   16   17 1   
    31   16   54 1   
    32   16   55 1   
    33   17   18 1   
    34   17   23 1   
    35   17   56 1   
    36   18   19 1   
    37   18   57 1   
    38   18   58 1   
    39   19   20 2   
    40   19   59 1   
    41   20   21 1   
    42   20   22 1   
    43   21   60 1   
    44   21   61 1   
    45   21   62 1   
    46   22   63 1   
    47   22   64 1   
    48   22   65 1   
    49   23   24 2   
    50   23   25 1   
    51   25   26 1   
    52   25   66 1   
    53   26   27 1   
    54   26   34 1   
    55   26   67 1   
    56   27   28 2   
    57   27   68 1   
    58   28   29 1   
    59   28   69 1   
    60   29   30 2   
    61   29   31 1   
    62   31   32 1   
    63   32   33 1   
    64   32   70 1   
    65   32   71 1   
    66   33   72 1   
    67   33   73 1   
    68   33   74 1   
    69   34   35 1   
    70   34   75 1   
    71   34   76 1   
    72   35   36 1   
    73   35   39 1   
    74   35   77 1   
    75   36   37 1   
    76   36   78 1   
    77   36   79 1   
    78   37   38 1   
    79   37   80 1   
    80   37   81 1   
    81   38   39 1   
    82   38   82 1   
    83   39   40 2   
@<TRIPOS>SUBSTRUCTURE
     1 CY6         1 TEMP              0 ****  ****    0 ROOT
