@<TRIPOS>MOLECULE
CY6
   82    79     1     0     0
SMALL
bcc


@<TRIPOS>ATOM
      1 C5         -5.3600   -8.8520    2.5440 c3        1 CY6     -0.165000
      2 C6         -4.5680   -7.9310    1.6510 c2        1 CY6     -0.030000
      3 O7         -4.8800   -7.5970    0.3930 os        1 CY6     -0.053000
      4 N8         -3.9200   -6.7210   -0.0660 n2        1 CY6      0.004000
      5 C9         -3.0300   -6.5270    0.9170 c1        1 CY6     -0.153000
      6 C10        -3.4200   -7.2730    1.9890 c1        1 CY6     -0.183000
      7 C11        -1.8080   -5.4980    0.8880 c1        1 CY6      0.383000
      8 O12        -1.0500   -5.4110    1.8610 o         1 CY6     -0.365000
      9 N13        -1.5760   -4.6700   -0.2910 n3        1 CY6     -0.352000
     10 C14        -0.4390   -3.8350   -0.3550 c3        1 CY6     -0.022000
     11 C15         0.6360   -4.4970   -1.2270 c3        1 CY6     -0.107000
     12 C16         1.6500   -5.1560   -0.3520 c3        1 CY6     -0.216500
     13 C17        -0.0220   -5.5580   -2.1430 c3        1 CY6     -0.216500
     14 C18        -0.8280   -2.5050   -0.9580 c2        1 CY6      0.216000
     15 O19        -1.2490   -2.4580   -2.1120 o         1 CY6     -0.283000
     16 C20        -0.8960   -1.2260   -0.0530 c3        1 CY6     -0.205000
     17 C21        -0.7240    0.0130   -0.9190 c3        1 CY6     -0.121000
     18 C22        -1.8770    0.9530   -0.6910 c3        1 CY6     -0.123000
     19 C23        -2.8300    0.9340   -1.9440 c2        1 CY6     -0.189000
     20 C24        -3.9060    1.8150   -2.0120 c1        1 CY6     -0.104000
     21 C25        -4.1500    2.7560   -0.9180 c2        1 CY6     -0.186000
     22 C26        -4.8670    1.7980   -3.2720 c3        1 CY6     -0.181000
     23 C29         0.5870    0.7180   -0.5530 c2        1 CY6      0.299000
     24 O30         1.6210    0.4630   -1.1810 o         1 CY6     -0.356000
     25 N31         0.5920    1.7640    0.4640 n         1 CY6     -0.382000
     26 C32         1.7290    2.5940    0.6160 c3        1 CY6      0.029000
     27 C33         2.9760    1.7760    0.4260 c2        1 CY6     -0.079000
     28 C34         3.9740    2.2120   -0.4480 c1        1 CY6     -0.195000
     29 C35         3.8030    3.5030   -1.2030 c1        1 CY6      0.341000
     30 O36         2.8720    3.6420   -1.9500 o         1 CY6     -0.370000
     31 O37         4.7490    4.5390   -1.0550 os        1 CY6     -0.274000
     32 C38         5.7780    4.5380   -2.0610 c3        1 CY6     -0.011000
     33 C39         6.7450    5.6580   -1.7920 c3        1 CY6     -0.244000
     34 C40         1.7330    3.2080    2.0250 c3        1 CY6     -0.160000
     35 C41         1.2440    4.6110    1.9610 c3        1 CY6     -0.124000
     36 C42         2.4130    5.5490    1.9950 c3        1 CY6     -0.182000
     37 C43         2.1700    6.5300    3.1340 c3        1 CY6     -0.024000
     38 N44         0.8930    6.3380    3.5640 n         1 CY6     -0.394000
     39 C45         0.5290    4.9430    3.2150 c2        1 CY6      0.303000
     40 O46        -0.3350    4.2730    3.7450 o         1 CY6     -0.367000
     41 H51        -6.1110   -9.2470    2.0290 hc        1 CY6      0.108667
     42 H52        -4.7750   -9.5670    2.8740 hc        1 CY6      0.108667
     43 H53        -5.7140   -8.3470    3.2990 hc        1 CY6      0.108667
     44 H10        -2.9420   -7.3290    2.8790 DU        1 CY6      0.196000
     45 H13        -2.1670   -4.7070   -1.0110 hn        1 CY6      0.253000
     46 H14        -0.0780   -3.6890    0.5660 h1        1 CY6      0.139000
     47 H15         1.0750   -3.8170   -1.7780 hc        1 CY6      0.093000
     48 H161        1.3700   -6.0940   -0.1690 hc        1 CY6      0.083167
     49 H162        1.7210   -4.6630    0.4950 hc        1 CY6      0.083167
     50 H163        2.5080   -5.1570   -0.7980 hc        1 CY6      0.083167
     51 H171        0.6760   -6.0630   -2.6100 hc        1 CY6      0.083167
     52 H172       -0.5470   -6.1560   -1.6130 hc        1 CY6      0.083167
     53 H173       -0.6080   -5.1030   -2.8120 hc        1 CY6      0.083167
     54 H201       -1.7820   -1.1910    0.4080 hc        1 CY6      0.119000
     55 H202       -0.1740   -1.2590    0.6220 hc        1 CY6      0.119000
     56 H21        -0.7010   -0.2450   -1.8440 hc        1 CY6      0.153000
     57 H221       -1.5370    1.8540   -0.5580 hc        1 CY6      0.089500
     58 H222       -2.3860    0.6660    0.1180 hc        1 CY6      0.089500
     59 H23        -2.6670    0.3100   -2.6690 ha        1 CY6      0.148000
     60 H251       -4.1700    2.2760   -0.0790 ha        1 CY6      0.082000
     61 H252       -3.4390    3.4180   -0.8960 ha        1 CY6      0.082000
     62 H253       -5.0000    3.1990   -1.0560 ha        1 CY6      0.082000
     63 H261       -4.4030    1.4110   -4.0260 hc        1 CY6      0.082000
     64 H262       -5.6540    1.2710   -3.0720 hc        1 CY6      0.082000
     65 H263       -5.1400    2.7300   -3.4930 hc        1 CY6      0.082000
     66 H31        -0.1370    1.8390    1.0720 hn        1 CY6      0.223000
     67 H32         1.7030    3.3030   -0.0460 h1        1 CY6      0.160000
     68 H33         3.0860    0.9550    0.9060 ha        1 CY6      0.136000
     69 H34         4.7790    1.6810   -0.5680 ha        1 CY6      0.157000
     70 H381        5.3690    4.6620   -2.9520 h1        1 CY6      0.104000
     71 H382        6.2610    3.6750   -2.0390 h1        1 CY6      0.104000
     72 H391        6.3900    6.5020   -2.1750 hc        1 CY6      0.088333
     73 H392        7.6170    5.4470   -2.2100 hc        1 CY6      0.088333
     74 H393        6.8630    5.7610   -0.8260 hc        1 CY6      0.088333
     75 H401        2.6680    3.1960    2.3910 hc        1 CY6      0.107000
     76 H402        1.1550    2.6920    2.6010 hc        1 CY6      0.107000
     77 H41         0.7270    4.5880    1.1550 hc        1 CY6      0.118000
     78 H421        3.2620    5.0340    2.1610 hc        1 CY6      0.116500
     79 H422        2.4770    6.0380    1.1390 hc        1 CY6      0.116500
     80 H431        2.2790    7.4500    2.8120 h1        1 CY6      0.081500
     81 H432        2.7790    6.3600    3.8440 h1        1 CY6      0.081500
     82 H44         0.4110    6.9060    4.1010 hn        1 CY6      0.245000
@<TRIPOS>BOND
     1    1    2 1   
     2    1   41 1   
     3    1   42 1   
     4    1   43 1   
     5    2    3 1   
     6    2    6 1   
     7    3    4 1   
     8    4    5 1   
     9    5    6 1   
    10    7    8 1   
    11    7    9 1   
    12    9   10 1   
    13    9   45 1   
    14   10   11 1   
    15   10   14 1   
    16   10   46 1   
    17   11   12 1   
    18   11   13 1   
    19   11   47 1   
    20   12   48 1   
    21   12   49 1   
    22   12   50 1   
    23   13   51 1   
    24   13   52 1   
    25   13   53 1   
    26   14   15 1   
    27   14   16 1   
    28   16   17 1   
    29   16   54 1   
    30   16   55 1   
    31   17   18 1   
    32   17   23 1   
    33   17   56 1   
    34   18   19 1   
    35   18   57 1   
    36   18   58 1   
    37   19   20 1   
    38   19   59 1   
    39   20   22 1   
    40   21   60 1   
    41   21   61 1   
    42   21   62 1   
    43   22   63 1   
    44   22   64 1   
    45   22   65 1   
    46   23   24 1   
    47   23   25 1   
    48   25   26 1   
    49   25   66 1   
    50   26   27 1   
    51   26   34 1   
    52   26   67 1   
    53   27   28 1   
    54   27   68 1   
    55   28   69 1   
    56   29   30 1   
    57   29   31 1   
    58   31   32 1   
    59   32   33 1   
    60   32   70 1   
    61   32   71 1   
    62   33   72 1   
    63   33   73 1   
    64   33   74 1   
    65   34   35 1   
    66   34   75 1   
    67   34   76 1   
    68   35   36 1   
    69   35   39 1   
    70   35   77 1   
    71   36   37 1   
    72   36   78 1   
    73   36   79 1   
    74   37   38 1   
    75   37   80 1   
    76   37   81 1   
    77   38   39 1   
    78   38   82 1   
    79   39   40 1   
@<TRIPOS>SUBSTRUCTURE
     1 CY6         1 TEMP              0 ****  ****    0 ROOT
