@<TRIPOS>MOLECULE
CY6
   84    85     1     0     0
SMALL
bcc


@<TRIPOS>ATOM
      1 C5          0.0380   -0.6110    0.7770 c3        1 CY6     -0.167400
      2 C6          1.4490   -0.5450    0.4110 cc        1 CY6      0.327000
      3 O7          1.9980    0.7620    0.2360 os        1 CY6     -0.045100
      4 N8          3.2470    0.6980   -0.0880 nc        1 CY6     -0.308300
      5 C9          3.6180   -0.6150   -0.1530 cd        1 CY6      0.187800
      6 C10         2.4700   -1.4520    0.1670 cd        1 CY6     -0.299600
      7 C11         4.9430   -1.1140   -0.4860 c         1 CY6      0.506600
      8 O12         5.3220   -2.2750   -0.5160 o         1 CY6     -0.416100
      9 N13         5.9540   -0.0380   -0.8340 ny        1 CY6     -0.673800
     10 C14         7.2930   -0.5530   -1.2860 c3        1 CY6      0.018500
     11 C15         8.0050    0.4880   -2.1860 c3        1 CY6     -0.077700
     12 C16         9.3590   -0.0410   -2.6110 c3        1 CY6     -0.115600
     13 C17         7.1720    0.8160   -3.4090 c3        1 CY6     -0.115600
     14 C18         8.1770   -0.8770   -0.0680 c         1 CY6      0.565100
     15 O19         8.1790   -0.1140    0.8990 o         1 CY6     -0.496100
     16 C20         8.9590   -2.1480   -0.1610 c3        1 CY6     -0.186400
     17 C21        10.0420   -2.2450    0.9150 c3        1 CY6     -0.099700
     18 C22         9.4370   -2.6830    2.2420 c3        1 CY6     -0.056200
     19 C23        10.3170   -2.4000    3.3990 c2        1 CY6     -0.308200
     20 C24        10.2440   -3.0200    4.5910 c2        1 CY6     -0.029400
     21 C25         9.3120   -4.1320    4.8910 c3        1 CY6     -0.091400
     22 C26        11.0990   -2.5930    5.7280 c3        1 CY6     -0.091400
     23 C29        11.1520   -3.1370    0.3980 c         1 CY6      0.567100
     24 O30        11.5060   -3.2270   -0.7720 o         1 CY6     -0.440100
     25 N31        11.9790   -3.9130    1.3860 ny        1 CY6     -0.675800
     26 C32        11.5920   -5.3760    1.4990 c3        1 CY6      0.172700
     27 C33        12.3960   -5.9980    2.6020 c2        1 CY6     -0.213200
     28 C34        11.8450   -6.4560    3.7300 ce        1 CY6     -0.107200
     29 C35        12.6860   -7.1140    4.7550 c         1 CY6      0.609300
     30 O36        13.9130   -7.2390    4.7370 o         1 CY6     -0.505000
     31 O37        11.9620   -7.5970    5.7960 os        1 CY6     -0.429900
     32 C38        12.7070   -8.2830    6.8330 c3        1 CY6      0.140400
     33 C39        11.6840   -8.7460    7.8380 c3        1 CY6     -0.106100
     34 C40        11.8070   -6.1690    0.1970 c3        1 CY6     -0.089400
     35 C41        10.6120   -7.0590   -0.0700 c3        1 CY6     -0.146700
     36 C42        10.8510   -8.0640   -1.2050 c3        1 CY6     -0.093400
     37 C43         9.6240   -7.9370   -2.1370 c3        1 CY6      0.079000
     38 N44         8.8740   -6.7830   -1.6760 ns        1 CY6     -0.545900
     39 C45         9.3920   -6.2420   -0.5300 c         1 CY6      0.702500
     40 O46         8.9640   -5.2170    0.0480 o         1 CY6     -0.731500
     41 H51        -0.0790   -1.1600    1.7480 hc        1 CY6      0.098700
     42 H52        -0.3970    0.4160    0.8900 hc        1 CY6      0.098700
     43 H53        -0.5370   -1.1580   -0.0150 hc        1 CY6      0.098700
     44 H10         2.4490   -2.5390    0.1980 ha        1 CY6      0.213000
     45 H13         5.5540    0.5490   -1.5820 hn        1 CY6      0.483800
     46 H14         7.1120   -1.4980   -1.8830 hx        1 CY6      0.133700
     47 H15         8.1670    1.4280   -1.5830 hc        1 CY6      0.086700
     48 H161        9.2600   -1.0110   -3.1560 hc        1 CY6      0.062867
     49 H162        9.8470    0.6960   -3.2980 hc        1 CY6      0.062867
     50 H163       10.0290   -0.1790   -1.7280 hc        1 CY6      0.062867
     51 H171        7.8130    1.3250   -4.1740 hc        1 CY6      0.062867
     52 H172        6.3370    1.5200   -3.1710 hc        1 CY6      0.062867
     53 H173        6.7550   -0.1090   -3.8760 hc        1 CY6      0.062867
     54 H201        8.2470   -3.0200   -0.0550 hc        1 CY6      0.126700
     55 H202        9.4160   -2.2270   -1.1880 hc        1 CY6      0.126700
     56 H21        10.5180   -1.2240    1.0490 hc        1 CY6      0.117700
     57 H221        9.1410   -3.7660    2.1780 hc        1 CY6      0.083700
     58 H222        8.4830   -2.0960    2.3830 hc        1 CY6      0.083700
     59 H23        10.9820   -1.5250    3.2850 ha        1 CY6      0.133000
     60 H251        8.3450   -3.7120    5.2720 hc        1 CY6      0.064700
     61 H252        9.7300   -4.8030    5.6840 hc        1 CY6      0.064700
     62 H253        9.0880   -4.7510    3.9870 hc        1 CY6      0.064700
     63 H261       11.7610   -1.7350    5.4580 hc        1 CY6      0.064700
     64 H262       10.4500   -2.2800    6.5860 hc        1 CY6      0.064700
     65 H263       11.7380   -3.4430    6.0750 hc        1 CY6      0.064700
     66 H31        12.9660   -3.8670    1.0980 hn        1 CY6      0.469300
     67 H32        10.4840   -5.3700    1.7540 hx        1 CY6      0.130700
     68 H33        13.4820   -6.1140    2.4150 ha        1 CY6      0.178000
     69 H34        10.7700   -6.3860    3.9700 ha        1 CY6      0.165000
     70 H381       13.2610   -9.1370    6.3630 h1        1 CY6      0.065700
     71 H382       13.4420   -7.5590    7.2730 h1        1 CY6      0.065700
     72 H391       10.9450   -9.4350    7.3630 hc        1 CY6      0.059033
     73 H392       11.1310   -7.8790    8.2710 hc        1 CY6      0.059033
     74 H393       12.2110   -9.2890    8.6610 hc        1 CY6      0.059033
     75 H401       11.9710   -5.4910   -0.6840 hc        1 CY6      0.090700
     76 H402       12.7260   -6.8090    0.2940 hc        1 CY6      0.090700
     77 H41        10.3230   -7.6070    0.8680 hc        1 CY6      0.097700
     78 H421       11.7890   -7.8290   -1.7660 hc        1 CY6      0.080200
     79 H422       10.9350   -9.1050   -0.8080 hc        1 CY6      0.080200
     80 H431        8.9860   -8.8620   -2.0870 h1        1 CY6      0.073700
     81 H432        9.9420   -7.7820   -3.2040 h1        1 CY6      0.073700
     82 H44         8.0280   -6.5000   -2.1020 hn        1 CY6      0.346500
     83 H132        6.0950    0.5600   -0.0020 hn        1 CY6      0.483800
     84 H312       11.8830   -3.4900    2.3250 hn        1 CY6      0.469300
@<TRIPOS>BOND
     1    1    2 1   
     2    1   41 1   
     3    1   42 1   
     4    1   43 1   
     5    2    3 1   
     6    2    6 2   
     7    3    4 1   
     8    4    5 2   
     9    5    6 1   
    10    5    7 1   
    11    6   44 1   
    12    7    8 2   
    13    7    9 1   
    14    9   10 1   
    15    9   45 1   
    16    9   83 1   
    17   10   11 1   
    18   10   14 1   
    19   10   46 1   
    20   11   12 1   
    21   11   13 1   
    22   11   47 1   
    23   12   48 1   
    24   12   49 1   
    25   12   50 1   
    26   13   51 1   
    27   13   52 1   
    28   13   53 1   
    29   14   15 2   
    30   14   16 1   
    31   16   17 1   
    32   16   54 1   
    33   16   55 1   
    34   17   18 1   
    35   17   23 1   
    36   17   56 1   
    37   18   19 1   
    38   18   57 1   
    39   18   58 1   
    40   19   20 2   
    41   19   59 1   
    42   20   21 1   
    43   20   22 1   
    44   21   60 1   
    45   21   61 1   
    46   21   62 1   
    47   22   63 1   
    48   22   64 1   
    49   22   65 1   
    50   23   24 2   
    51   23   25 1   
    52   25   26 1   
    53   25   66 1   
    54   25   84 1   
    55   26   27 1   
    56   26   34 1   
    57   26   67 1   
    58   27   28 2   
    59   27   68 1   
    60   28   29 1   
    61   28   69 1   
    62   29   30 2   
    63   29   31 1   
    64   31   32 1   
    65   32   33 1   
    66   32   70 1   
    67   32   71 1   
    68   33   72 1   
    69   33   73 1   
    70   33   74 1   
    71   34   35 1   
    72   34   75 1   
    73   34   76 1   
    74   35   36 1   
    75   35   39 1   
    76   35   77 1   
    77   36   37 1   
    78   36   78 1   
    79   36   79 1   
    80   37   38 1   
    81   37   80 1   
    82   37   81 1   
    83   38   39 1   
    84   38   82 1   
    85   39   40 2   
@<TRIPOS>SUBSTRUCTURE
     1 CY6         1 TEMP              0 ****  ****    0 ROOT
