@<TRIPOS>MOLECULE
CY6
   84    85     1     0     0
SMALL
bcc


@<TRIPOS>ATOM
      1 C5          2.1040    4.0750    0.1470 c3        1 CY6     -0.167400
      2 C6          2.8920    2.8570   -0.0090 cc        1 CY6      0.327000
      3 O7          3.2190    2.4810   -1.3490 os        1 CY6     -0.045100
      4 N8          3.9130    1.3920   -1.3660 nc        1 CY6     -0.309300
      5 C9          4.0990    0.9690   -0.0810 cd        1 CY6      0.187800
      6 C10         3.4470    1.9010    0.8280 cd        1 CY6     -0.298600
      7 C11         4.8320   -0.2170    0.3300 c         1 CY6      0.510600
      8 O12         5.0650   -0.6020    1.4660 o         1 CY6     -0.424100
      9 N13         5.3650   -1.0630   -0.8120 n4        1 CY6     -0.673800
     10 C14         5.9710   -2.3710   -0.3810 c3        1 CY6      0.021500
     11 C15         6.0270   -3.3750   -1.5590 c3        1 CY6     -0.075700
     12 C16         6.5890   -4.6930   -1.0650 c3        1 CY6     -0.120600
     13 C17         4.6560   -3.5910   -2.1670 c3        1 CY6     -0.120600
     14 C18         7.3860   -2.1400    0.1730 c         1 CY6      0.566100
     15 O19         8.1620   -1.3860   -0.4170 o         1 CY6     -0.498100
     16 C20         7.6890   -2.8390    1.4620 c3        1 CY6     -0.176400
     17 C21         9.1360   -2.6670    1.9200 c3        1 CY6     -0.120700
     18 C22         9.2170   -2.6630    3.4430 c3        1 CY6     -0.060200
     19 C23        10.5110   -2.1360    3.9380 c2        1 CY6     -0.316200
     20 C24        11.0390   -2.4540    5.1350 c2        1 CY6     -0.026400
     21 C25        10.4170   -3.4380    6.0530 c3        1 CY6     -0.093400
     22 C26        12.2840   -1.8130    5.6220 c3        1 CY6     -0.093400
     23 C29         9.9980   -3.7390    1.2760 c         1 CY6      0.548100
     24 O30         9.7530   -4.2980    0.2160 o         1 CY6     -0.424100
     25 N31        11.2610   -4.1070    1.9980 n4        1 CY6     -0.665800
     26 C32        11.9970   -5.2940    1.4220 c3        1 CY6      0.141700
     27 C33        12.9280   -5.8750    2.4460 c2        1 CY6     -0.165200
     28 C34        12.5550   -6.5870    3.5140 ce        1 CY6     -0.141200
     29 C35        11.1540   -6.8290    3.9090 c         1 CY6      0.644300
     30 O36        10.2050   -6.0340    3.7730 o         1 CY6     -0.629000
     31 O37        10.9610   -8.0170    4.5110 os        1 CY6     -0.386900
     32 C38         9.6240   -8.3720    4.9350 c3        1 CY6      0.138400
     33 C39         8.8320   -8.9240    3.7800 c3        1 CY6     -0.130100
     34 C40        12.7600   -4.9360    0.1370 c3        1 CY6     -0.077400
     35 C41        13.1950   -6.1990   -0.5780 c3        1 CY6     -0.150700
     36 C42        14.1350   -5.9140   -1.7570 c3        1 CY6     -0.093400
     37 C43        13.5180   -6.6470   -2.9710 c3        1 CY6      0.082000
     38 N44        12.2260   -7.1440   -2.5440 n         1 CY6     -0.554900
     39 C45        12.0010   -6.9460   -1.2010 c         1 CY6      0.694500
     40 O46        10.9810   -7.2950   -0.5800 o         1 CY6     -0.658500
     41 H51         1.1310    3.8370    0.6530 hc        1 CY6      0.099033
     42 H52         2.6640    4.8130    0.7790 hc        1 CY6      0.099033
     43 H53         1.8860    4.5440   -0.8470 hc        1 CY6      0.099033
     44 H10         3.4180    1.8350    1.9140 ha        1 CY6      0.214000
     45 H13         4.5900   -1.2570   -1.4640 hn        1 CY6      0.483800
     46 H14         5.3090   -2.7950    0.4330 hx        1 CY6      0.129700
     47 H15         6.7230   -2.9620   -2.3450 hc        1 CY6      0.086700
     48 H161        6.5720   -5.4400   -1.8990 hc        1 CY6      0.065033
     49 H162        7.6510   -4.5780   -0.7360 hc        1 CY6      0.065033
     50 H163        5.9800   -5.1000   -0.2220 hc        1 CY6      0.065033
     51 H171        4.3600   -2.7500   -2.8410 hc        1 CY6      0.065033
     52 H172        4.6680   -4.5180   -2.7970 hc        1 CY6      0.065033
     53 H173        3.8780   -3.7280   -1.3780 hc        1 CY6      0.065033
     54 H201        6.9990   -2.4010    2.2410 hc        1 CY6      0.115200
     55 H202        7.4310   -3.9300    1.3650 hc        1 CY6      0.115200
     56 H21         9.5310   -1.6790    1.5270 hc        1 CY6      0.124700
     57 H221        9.0120   -3.6960    3.8410 hc        1 CY6      0.086700
     58 H222        8.3980   -1.9960    3.8390 hc        1 CY6      0.086700
     59 H23        10.9810   -1.3540    3.3180 ha        1 CY6      0.129000
     60 H251       10.2470   -4.4170    5.5340 hc        1 CY6      0.065700
     61 H252       11.0590   -3.6200    6.9500 hc        1 CY6      0.065700
     62 H253        9.4250   -3.0570    6.4070 hc        1 CY6      0.065700
     63 H261       13.0440   -2.5890    5.8900 hc        1 CY6      0.065700
     64 H262       12.0590   -1.2210    6.5470 hc        1 CY6      0.065700
     65 H263       12.7280   -1.1210    4.8650 hc        1 CY6      0.065700
     66 H31        10.9950   -4.3410    2.9800 hn        1 CY6      0.478300
     67 H32        11.1960   -6.0660    1.1570 hx        1 CY6      0.169700
     68 H33        14.0050   -5.7360    2.2310 ha        1 CY6      0.173000
     69 H34        13.3040   -7.0620    4.1780 ha        1 CY6      0.197000
     70 H381        9.1280   -7.4780    5.3940 h1        1 CY6      0.080700
     71 H382        9.8320   -9.1550    5.7160 h1        1 CY6      0.080700
     72 H391        7.8470   -9.2970    4.1540 hc        1 CY6      0.060033
     73 H392        8.6530   -8.1330    3.0130 hc        1 CY6      0.060033
     74 H393        9.3750   -9.7720    3.2960 hc        1 CY6      0.060033
     75 H401       13.6640   -4.3170    0.3830 hc        1 CY6      0.071200
     76 H402       12.1000   -4.3380   -0.5470 hc        1 CY6      0.071200
     77 H41        13.6890   -6.9010    0.1490 hc        1 CY6      0.092700
     78 H421       15.1630   -6.3000   -1.5520 hc        1 CY6      0.071200
     79 H422       14.2090   -4.8190   -1.9650 hc        1 CY6      0.071200
     80 H431       14.1800   -7.4960   -3.3010 h1        1 CY6      0.067200
     81 H432       13.3850   -5.9460   -3.8390 h1        1 CY6      0.067200
     82 H44        11.6790   -7.7400   -3.1120 hn        1 CY6      0.349500
     83 H132        6.0800   -0.5170   -1.3180 hn        1 CY6      0.483800
     84 H312       11.8730   -3.2840    2.0230 hn        1 CY6      0.478300
@<TRIPOS>BOND
     1    1    2 1   
     2    1   41 1   
     3    1   42 1   
     4    1   43 1   
     5    2    3 1   
     6    2    6 2   
     7    3    4 1   
     8    4    5 2   
     9    5    6 1   
    10    5    7 1   
    11    6   44 1   
    12    7    8 2   
    13    7    9 1   
    14    9   10 1   
    15    9   45 1   
    16    9   83 1   
    17   10   11 1   
    18   10   14 1   
    19   10   46 1   
    20   11   12 1   
    21   11   13 1   
    22   11   47 1   
    23   12   48 1   
    24   12   49 1   
    25   12   50 1   
    26   13   51 1   
    27   13   52 1   
    28   13   53 1   
    29   14   15 2   
    30   14   16 1   
    31   16   17 1   
    32   16   54 1   
    33   16   55 1   
    34   17   18 1   
    35   17   23 1   
    36   17   56 1   
    37   18   19 1   
    38   18   57 1   
    39   18   58 1   
    40   19   20 2   
    41   19   59 1   
    42   20   21 1   
    43   20   22 1   
    44   21   60 1   
    45   21   61 1   
    46   21   62 1   
    47   22   63 1   
    48   22   64 1   
    49   22   65 1   
    50   23   24 2   
    51   23   25 1   
    52   25   26 1   
    53   25   66 1   
    54   25   84 1   
    55   26   27 1   
    56   26   34 1   
    57   26   67 1   
    58   27   28 2   
    59   27   68 1   
    60   28   29 1   
    61   28   69 1   
    62   29   30 2   
    63   29   31 1   
    64   31   32 1   
    65   32   33 1   
    66   32   70 1   
    67   32   71 1   
    68   33   72 1   
    69   33   73 1   
    70   33   74 1   
    71   34   35 1   
    72   34   75 1   
    73   34   76 1   
    74   35   36 1   
    75   35   39 1   
    76   35   77 1   
    77   36   37 1   
    78   36   78 1   
    79   36   79 1   
    80   37   38 1   
    81   37   80 1   
    82   37   81 1   
    83   38   39 1   
    84   38   82 1   
    85   39   40 2   
@<TRIPOS>SUBSTRUCTURE
     1 CY6         1 TEMP              0 ****  ****    0 ROOT
