@<TRIPOS>MOLECULE
CY7
   84    87     1     0     0
SMALL
bcc


@<TRIPOS>ATOM
      1 CAN        -1.4690    2.7120   -1.6710 ca        1 CY7     -0.216300
      2 CAL        -1.2860    3.6020   -2.7300 ca        1 CY7     -0.079000
      3 CAK        -2.3890    3.9660   -3.5040 ca        1 CY7     -0.222300
      4 CAM        -3.6390    3.4110   -3.1810 ca        1 CY7      0.374200
      5 NAZ        -3.8370    2.5490   -2.1640 nb        1 CY7     -0.735000
      6 CBK        -2.7630    2.2070   -1.4130 ca        1 CY7      0.386600
      7 CAV        -2.9310    1.2760   -0.2350 c3        1 CY7      0.076100
      8 OBE        -3.2820   -0.0450   -0.6560 os        1 CY7     -0.305900
      9 CBN        -4.6320   -0.3460   -0.6090 ca        1 CY7      0.096100
     10 CBJ        -5.2550   -0.8680   -1.7540 ca        1 CY7     -0.022600
     11 CAR        -6.5990   -1.2460   -1.7060 ca        1 CY7     -0.173000
     12 ClA        -4.4170   -1.0650   -3.2210 cl        1 CY7     -0.069400
     13 CAP        -5.3580   -0.2430    0.5880 ca        1 CY7     -0.135000
     14 CAO        -6.6990   -0.5910    0.6310 ca        1 CY7     -0.130000
     15 CBI        -7.3600   -1.0600   -0.5310 ca        1 CY7      0.178400
     16 NBC        -8.7520   -1.1000   -0.6200 ne        1 CY7     -0.693100
     17 CBP        -9.6030   -1.9520   -0.1410 cd        1 CY7      0.654200
     18 CBR       -11.0450   -1.6720   -0.3650 ca        1 CY7     -0.197900
     19 CAS       -11.4390   -0.6060   -1.1840 ca        1 CY7     -0.042000
     20 CBL        -9.3420   -3.1770    0.6230 cd        1 CY7     -0.231300
     21 CAJ        -8.0150   -3.6350    0.7950 ch        1 CY7      0.192500
     22 NAD        -6.9300   -4.0300    0.9410 n1        1 CY7     -0.342800
     23 CAQ       -10.3710   -3.9060    1.1740 cc        1 CY7      0.173000
     24 NBA       -11.6850   -3.5540    1.0410 na        1 CY7     -0.599400
     25 CBQ       -12.0470   -2.4520    0.2610 ca        1 CY7      0.189600
     26 CAT       -13.4110   -2.1130    0.0950 ca        1 CY7     -0.248000
     27 CBO       -13.7760   -1.0260   -0.6960 ca        1 CY7      0.175100
     28 OBD       -15.0720   -0.6060   -0.8760 os        1 CY7     -0.334900
     29 CAU       -16.1020   -1.3960   -0.2550 c3        1 CY7      0.129400
     30 CAA       -17.4080   -0.7440   -0.6440 c3        1 CY7     -0.103100
     31 CBM       -12.7790   -0.2480   -1.3650 ca        1 CY7     -0.000400
     32 NBB       -13.1010    0.8840   -2.1400 ns        1 CY7     -0.462100
     33 CBH       -12.4370    1.1880   -3.3160 c         1 CY7      0.671100
     34 OAG       -11.8020    0.3300   -3.9590 o         1 CY7     -0.593100
     35 CAX       -12.4610    2.6360   -3.7910 c3        1 CY7     -0.144400
     36 CBT       -11.0770    3.0410   -4.2730 c3        1 CY7     -0.010600
     37 CAY       -11.1270    4.4880   -4.7590 c3        1 CY7      0.125800
     38 NBU        -9.9110    4.9150   -5.5220 nx        1 CY7     -0.681400
     39 CAB       -10.0120    4.5310   -6.9550 c3        1 CY7      0.094600
     40 CAC        -9.6930    6.3760   -5.3900 c3        1 CY7      0.094600
     41 SG         -9.8620    2.9820   -2.9540 ss        1 CY7     -0.310200
     42 CB         -9.0050    1.4410   -3.1870 c3        1 CY7     -0.036300
     43 CA         -7.7000    1.4820   -3.9690 c3        1 CY7     -0.010500
     44 C          -7.7820    2.6020   -5.0510 c         1 CY7      0.907600
     45 O          -7.1540    3.6810   -4.8480 o         1 CY7     -0.808800
     46 N          -6.5000    1.6840   -3.1050 nz        1 CY7     -0.818600
     47 OXT        -8.5510    2.3980   -6.0230 o         1 CY7     -0.808800
     48 HAN        -0.6180    2.4000   -1.0480 ha        1 CY7      0.157000
     49 HAL        -0.2860    4.0070   -2.9510 ha        1 CY7      0.155000
     50 HAK        -2.2910    4.6640   -4.3460 ha        1 CY7      0.157000
     51 HAM        -4.5340    3.6840   -3.7740 h4        1 CY7      0.026100
     52 HAV1       -1.9380    1.1290    0.2770 h1        1 CY7      0.074700
     53 HAV2       -3.6750    1.6960    0.4910 h1        1 CY7      0.074700
     54 HAP        -4.8490    0.1080    1.5000 ha        1 CY7      0.156000
     55 HAR        -7.0650   -1.7020   -2.5960 ha        1 CY7      0.160000
     56 HAO        -7.2530   -0.4960    1.5790 ha        1 CY7      0.154000
     57 HAS       -10.6660   -0.0250   -1.7180 ha        1 CY7      0.164000
     58 HAQ       -10.1760   -4.8240    1.7650 h4        1 CY7      0.177000
     59 HBA       -12.3990   -4.1050    1.4620 hn        1 CY7      0.465800
     60 HAT       -14.1840   -2.7170    0.5920 ha        1 CY7      0.152000
     61 HAU1      -16.0410   -2.4480   -0.6380 h1        1 CY7      0.046700
     62 HAU2      -15.9540   -1.3830    0.8570 h1        1 CY7      0.046700
     63 HAA1      -17.5260   -0.7340   -1.7540 hc        1 CY7      0.056700
     64 HAA2      -17.4480    0.3080   -0.2740 hc        1 CY7      0.056700
     65 HAA3      -18.2490   -1.3220   -0.1920 hc        1 CY7      0.056700
     66 HBB       -13.8630    1.4420   -1.8300 hn        1 CY7      0.340500
     67 HAX1      -13.1940    2.7020   -4.6390 hc        1 CY7      0.080200
     68 HAX2      -12.8010    3.3320   -2.9800 hc        1 CY7      0.080200
     69 HBT       -10.7510    2.3400   -5.0950 h1        1 CY7      0.146700
     70 HAY1      -11.2380    5.1680   -3.8640 hx        1 CY7      0.095700
     71 HAY2      -12.0240    4.6320   -5.4270 hx        1 CY7      0.095700
     72 HAB1      -10.2830    3.4410   -7.0290 hx        1 CY7      0.099867
     73 HAB2      -10.7820    5.1660   -7.4630 hx        1 CY7      0.099867
     74 HAB3       -9.0040    4.6670   -7.4320 hx        1 CY7      0.099867
     75 HAC1      -10.5910    6.9320   -5.7680 hx        1 CY7      0.099867
     76 HAC2       -8.7890    6.6600   -5.9940 hx        1 CY7      0.099867
     77 HAC3       -9.5120    6.6320   -4.3130 hx        1 CY7      0.099867
     78 HBC1       -8.8560    1.0470   -2.1470 h1        1 CY7      0.129200
     79 HBC2       -9.6830    0.7230   -3.7260 h1        1 CY7      0.129200
     80 HA         -7.5670    0.4890   -4.4950 hx        1 CY7      0.119700
     81 HN1        -5.6640    1.3640   -3.6050 hn        1 CY7      0.462133
     82 HN2        -6.3950    2.6920   -2.9180 hn        1 CY7      0.462133
     83 HBU1       -9.0760    4.4300   -5.1150 hn        1 CY7      0.511800
     84 HN3        -6.5760    1.1650   -2.2240 hn        1 CY7      0.462133
@<TRIPOS>BOND
     1    1    2 ar  
     2    1    6 ar  
     3    1   48 1   
     4    2    3 ar  
     5    2   49 1   
     6    3    4 ar  
     7    3   50 1   
     8    4    5 ar  
     9    4   51 1   
    10    5    6 ar  
    11    6    7 1   
    12    7    8 1   
    13    7   52 1   
    14    7   53 1   
    15    8    9 1   
    16    9   10 ar  
    17    9   13 ar  
    18   10   11 ar  
    19   10   12 1   
    20   11   15 ar  
    21   11   55 1   
    22   13   14 ar  
    23   13   54 1   
    24   14   15 ar  
    25   14   56 1   
    26   15   16 1   
    27   16   17 2   
    28   17   18 1   
    29   17   20 1   
    30   18   19 ar  
    31   18   25 ar  
    32   19   31 ar  
    33   19   57 1   
    34   20   21 1   
    35   20   23 2   
    36   21   22 3   
    37   23   24 1   
    38   23   58 1   
    39   24   25 1   
    40   24   59 1   
    41   25   26 ar  
    42   26   27 ar  
    43   26   60 1   
    44   27   28 1   
    45   27   31 ar  
    46   28   29 1   
    47   29   30 1   
    48   29   61 1   
    49   29   62 1   
    50   30   63 1   
    51   30   64 1   
    52   30   65 1   
    53   31   32 1   
    54   32   33 1   
    55   32   66 1   
    56   33   34 2   
    57   33   35 1   
    58   35   36 1   
    59   35   67 1   
    60   35   68 1   
    61   36   37 1   
    62   36   41 1   
    63   36   69 1   
    64   37   38 1   
    65   37   70 1   
    66   37   71 1   
    67   38   39 1   
    68   38   40 1   
    69   38   83 1   
    70   39   72 1   
    71   39   73 1   
    72   39   74 1   
    73   40   75 1   
    74   40   76 1   
    75   40   77 1   
    76   41   42 1   
    77   42   43 1   
    78   42   78 1   
    79   42   79 1   
    80   43   44 1   
    81   43   46 1   
    82   43   80 1   
    83   44   45 1   
    84   44   47 1   
    85   46   81 1   
    86   46   82 1   
    87   46   84 1   
@<TRIPOS>SUBSTRUCTURE
     1 CY7         1 TEMP              0 ****  ****    0 ROOT
