@<TRIPOS>MOLECULE
CY7
   82    77     1     0     0
SMALL
bcc


@<TRIPOS>ATOM
      1 CAN        10.0150   -4.1200    1.2380 c1        1 CY7     -0.151000
      2 CAL        11.4100   -4.0070    1.1900 c1        1 CY7     -0.143500
      3 CAK        11.9810   -2.8710    0.7220 c1        1 CY7     -0.143500
      4 CAM        11.1680   -1.8040    0.2850 c1        1 CY7     -0.074000
      5 NAZ         9.8070   -1.9160    0.3330 n1        1 CY7     -0.142000
      6 CBK         9.2230   -3.0760    0.8110 c1        1 CY7     -0.019000
      7 CAV         7.6500   -3.2390    0.7700 c3        1 CY7      0.021000
      8 OBE         7.0500   -1.9970    0.3510 os        1 CY7     -0.227000
      9 CBN         5.6290   -2.0200    0.3380 c2        1 CY7      0.022000
     10 CBJ         4.9480   -2.3320   -0.8430 c1        1 CY7     -0.054000
     11 CAR         3.5530   -2.2740   -0.8810 c1        1 CY7     -0.145000
     12 CLA         5.8440   -2.6440   -2.3010 cl        1 CY7     -0.022000
     13 CAP         4.9220   -1.6550    1.4690 c2        1 CY7     -0.113000
     14 CAO         3.5290   -1.5960    1.4310 c1        1 CY7     -0.126000
     15 CBI         2.8460   -1.9080    0.2490 c1        1 CY7      0.045000
     16 NBC         1.4170   -1.7670    0.1910 n2        1 CY7     -0.194000
     17 CBP         0.6140   -2.8340    0.4500 c1        1 CY7      0.159000
     18 CBR        -0.8780   -2.6850    0.3670 c1        1 CY7     -0.063000
     19 CAS        -1.4510   -1.4250    0.0420 c2        1 CY7     -0.110000
     20 CBL         1.2000   -4.1290    0.7880 c2        1 CY7     -0.205000
     21 CAJ         2.6980   -4.3080    0.7610 c1        1 CY7     -0.072000
     22 NAD         3.8390   -4.4430    0.7390 n1        1 CY7     -0.072000
     23 CAQ         0.3180   -5.2890    1.0480 c1        1 CY7      0.080000
     24 NBA        -1.1060   -5.1370    0.9650 n2        1 CY7     -0.230000
     25 CBQ        -1.7090   -3.7890    0.6130 c2        1 CY7      0.018000
     26 CAT        -3.1190   -3.6480    0.5370 c2        1 CY7     -0.176000
     27 CBO        -3.6890   -2.3960    0.2140 c1        1 CY7      0.055000
     28 OBD        -5.1070   -2.4450    0.0210 o         1 CY7     -0.232000
     29 CAU        -5.8390   -2.9220    1.1640 c3        1 CY7     -0.019000
     30 CAA        -7.3120   -2.5720    0.9990 c3        1 CY7     -0.233000
     31 CBM        -2.8630   -1.2890   -0.0330 c2        1 CY7      0.072000
     32 NBB        -3.5120   -0.0880   -0.5460 n         1 CY7     -0.314000
     33 CBH        -3.2970    1.2080    0.1200 c2        1 CY7      0.321000
     34 OAG        -2.5720    1.2790    1.1070 o         1 CY7     -0.384000
     35 CAX        -3.9950    2.4920   -0.4310 c3        1 CY7     -0.214000
     36 CBT        -3.0600    3.6560   -0.3260 c3        1 CY7     -0.173000
     37 CAY        -2.6390    4.0890   -1.7270 c3        1 CY7     -0.071000
     38 NBU        -1.1730    4.2110   -1.7840 n3        1 CY7     -0.268000
     39 CAB        -0.6390    3.1250   -2.4880 c3        1 CY7     -0.122000
     40 CAC        -0.8240    5.4200   -2.4420 c3        1 CY7     -0.122000
     41 SG         -3.8730    4.9990    0.4920 ss        1 CY7     -0.011000
     42 CB         -5.1910    5.6270   -0.5510 c3        1 CY7     -0.229000
     43 CA         -5.8750    6.8040    0.1430 c3        1 CY7     -0.118000
     44 C          -6.8760    7.4670   -0.8270 c2        1 CY7      0.308000
     45 O          -7.8900    6.8150   -1.2410 o         1 CY7     -0.584000
     46 N          -6.5630    6.3360    1.3000 n3        1 CY7     -0.311000
     47 OXT        -6.6390    8.5860   -1.2830 o         1 CY7     -0.584000
     48 HAN         9.6170   -4.9250    1.5230 ha        1 CY7      0.168000
     49 HAL        11.9490   -4.7180    1.4810 ha        1 CY7      0.136000
     50 HAK        12.9380   -2.8300    0.5940 ha        1 CY7      0.136000
     51 HAM        11.5650   -0.9800    0.0260 ha        1 CY7      0.153000
     52 HAV1        7.3130   -3.4830    1.6860 h1        1 CY7      0.103500
     53 HAV2        7.4060   -3.9600    0.1230 h1        1 CY7      0.103500
     54 HAP         5.4020   -1.5130    2.3310 ha        1 CY7      0.145000
     55 HAR         3.0780   -2.5630   -1.6790 ha        1 CY7      0.152000
     56 HAO         3.0290   -1.3850    2.2380 ha        1 CY7      0.150000
     57 HAS        -0.8650   -0.6760   -0.2540 ha        1 CY7      0.205000
     58 HAQ         0.7150   -6.1590    1.4010 ha        1 CY7      0.153000
     59 HBA        -1.6870   -5.8930    1.1570 hn        1 CY7      0.247000
     60 HAT        -3.6980   -4.4450    0.6210 ha        1 CY7      0.142000
     61 HAU1       -5.4890   -2.4960    1.9840 h1        1 CY7      0.084000
     62 HAU2       -5.7370   -3.9070    1.2350 h1        1 CY7      0.084000
     63 HAA1       -7.4300   -1.6070    1.0940 hc        1 CY7      0.098000
     64 HAA2       -7.8350   -3.0310    1.6780 hc        1 CY7      0.098000
     65 HAA3       -7.6140   -2.8490    0.1170 hc        1 CY7      0.098000
     66 HBB        -4.0260   -0.1330   -1.3190 hn        1 CY7      0.301000
     67 HAX1       -4.2360    2.3540   -1.3660 hc        1 CY7      0.146500
     68 HAX2       -4.8070    2.6760    0.0910 hc        1 CY7      0.146500
     69 HBT        -2.2610    3.3920    0.1910 h1        1 CY7      0.135000
     70 HAY1       -2.9380    3.4180   -2.3810 h1        1 CY7      0.092000
     71 HAY2       -3.0500    4.9600   -1.9390 h1        1 CY7      0.092000
     72 HAB1       -0.9130    2.2950   -2.0620 h1        1 CY7      0.069667
     73 HAB2       -0.9660    3.1410   -3.4110 h1        1 CY7      0.069667
     74 HAB3        0.3410    3.1860   -2.4870 h1        1 CY7      0.069667
     75 HAC1       -1.0960    6.1800   -1.8920 h1        1 CY7      0.069667
     76 HAC2        0.1500    5.4490   -2.5810 h1        1 CY7      0.069667
     77 HAC3       -1.2790    5.4630   -3.3070 h1        1 CY7      0.069667
     78 HBC1       -5.8480    4.9160   -0.7110 h1        1 CY7      0.112500
     79 HBC2       -4.8260    5.9160   -1.3840 h1        1 CY7      0.112500
     80 HA         -5.2020    7.4580    0.4080 h1        1 CY7      0.094000
     81 HN1        -7.4460    6.5420    1.2340 hn        1 CY7      0.131500
     82 HN2        -6.2250    6.7170    2.0150 hn        1 CY7      0.131500
@<TRIPOS>BOND
     1    1    6 1   
     2    1   48 1   
     3    2    3 1   
     4    2   49 1   
     5    3   50 1   
     6    4    5 1   
     7    4   51 1   
     8    6    7 1   
     9    7    8 1   
    10    7   52 1   
    11    7   53 1   
    12    8    9 1   
    13    9   10 1   
    14    9   13 1   
    15   10   12 1   
    16   11   15 1   
    17   11   55 1   
    18   13   14 1   
    19   13   54 1   
    20   14   56 1   
    21   15   16 1   
    22   16   17 1   
    23   17   20 1   
    24   18   19 1   
    25   18   25 1   
    26   19   31 1   
    27   19   57 1   
    28   20   21 1   
    29   20   23 1   
    30   21   22 1   
    31   23   58 1   
    32   24   25 1   
    33   24   59 1   
    34   25   26 1   
    35   26   27 1   
    36   26   60 1   
    37   27   31 1   
    38   28   29 1   
    39   29   30 1   
    40   29   61 1   
    41   29   62 1   
    42   30   63 1   
    43   30   64 1   
    44   30   65 1   
    45   31   32 1   
    46   32   33 1   
    47   32   66 1   
    48   33   34 1   
    49   33   35 1   
    50   35   36 1   
    51   35   67 1   
    52   35   68 1   
    53   36   37 1   
    54   36   41 1   
    55   36   69 1   
    56   37   38 1   
    57   37   70 1   
    58   37   71 1   
    59   38   39 1   
    60   38   40 1   
    61   39   72 1   
    62   39   73 1   
    63   39   74 1   
    64   40   75 1   
    65   40   76 1   
    66   40   77 1   
    67   41   42 1   
    68   42   43 1   
    69   42   78 1   
    70   42   79 1   
    71   43   44 1   
    72   43   46 1   
    73   43   80 1   
    74   44   45 1   
    75   44   47 1   
    76   46   81 1   
    77   46   82 1   
@<TRIPOS>SUBSTRUCTURE
     1 CY7         1 TEMP              0 ****  ****    0 ROOT
