@<TRIPOS>MOLECULE
CY7
   85    86     1     0     0
SMALL
bcc


@<TRIPOS>ATOM
      1 CAN         0.1380    1.2960   -0.3390 ca        1 CY7     -0.210300
      2 CAL         1.1180    1.9870   -1.0570 ca        1 CY7     -0.083000
      3 CAK         0.7220    2.9620   -1.9700 ca        1 CY7     -0.220300
      4 CAM        -0.6560    3.2070   -2.1290 ca        1 CY7      0.392200
      5 NAZ        -1.6170    2.5570   -1.4490 nb        1 CY7     -0.692000
      6 CBK        -1.2160    1.6140   -0.5590 ca        1 CY7      0.373600
      7 CAV        -2.2640    0.8810    0.2400 c3        1 CY7      0.081100
      8 OBE        -2.8640   -0.0890   -0.6390 os        1 CY7     -0.298900
      9 CBN        -4.2320   -0.1840   -0.6130 ca        1 CY7      0.155100
     10 CBJ        -4.8660   -0.6450   -1.7900 ca        1 CY7     -0.002600
     11 CAR        -6.2510   -0.8080   -1.8120 ca        1 CY7     -0.158000
     12 CLA        -3.9900   -1.0290   -3.1880 cl        1 CY7     -0.035400
     13 CAP        -5.0060    0.0820    0.5270 ca        1 CY7     -0.167000
     14 CAO        -6.3860   -0.0660    0.4970 ca        1 CY7     -0.111000
     15 CBI        -7.0360   -0.4930   -0.6810 ca        1 CY7      0.074400
     16 NBC        -8.4410   -0.4670   -0.8030 ne        1 CY7     -0.699100
     17 CBP        -9.2590   -1.3180   -0.2590 cd        1 CY7      0.629200
     18 CBR       -10.7180   -1.0990   -0.4350 ca        1 CY7     -0.218900
     19 CAS       -11.1970   -0.1940   -1.3840 ca        1 CY7      0.011000
     20 CBL        -8.9270   -2.4910    0.5630 cd        1 CY7     -0.188300
     21 CAJ        -7.5980   -2.9800    0.5990 ch        1 CY7      0.175500
     22 NAD        -6.5190   -3.4140    0.6350 n1        1 CY7     -0.300800
     23 CAQ        -9.8850   -3.1430    1.2950 cc        1 CY7      0.160000
     24 NBA       -11.2110   -2.7770    1.2660 na        1 CY7     -0.598400
     25 CBQ       -11.6520   -1.8050    0.3810 ca        1 CY7      0.253600
     26 CAT       -13.0340   -1.5160    0.2800 ca        1 CY7     -0.258000
     27 CBO       -13.4890   -0.5800   -0.6430 ca        1 CY7      0.230100
     28 OBD       -14.7990   -0.2160   -0.7980 os        1 CY7     -0.360900
     29 CAU       -15.7730   -0.8760    0.0450 c3        1 CY7      0.135400
     30 CAA       -17.1080   -0.2900   -0.3450 c3        1 CY7     -0.109100
     31 CBM       -12.5630    0.0840   -1.5040 ca        1 CY7     -0.120400
     32 NBB       -13.0300    1.0460   -2.4860 n4        1 CY7     -0.562200
     33 CBH       -13.4790    0.4660   -3.7950 c         1 CY7      0.549100
     34 OAG       -13.4280   -0.7380   -3.9870 o         1 CY7     -0.402100
     35 CAX       -13.9500    1.4990   -4.7900 c3        1 CY7     -0.156400
     36 CBT       -12.7910    2.2550   -5.4170 c3        1 CY7      0.011600
     37 CAY       -13.3490    3.4970   -6.1250 c3        1 CY7      0.114800
     38 NBU       -12.2990    4.5370   -6.3730 n4        1 CY7     -0.699400
     39 CAB       -11.5600    4.2670   -7.6290 c3        1 CY7      0.086600
     40 CAC       -12.8890    5.8970   -6.3950 c3        1 CY7      0.086600
     41 SG        -11.5320    2.7440   -4.2580 s         1 CY7     -0.824300
     42 CB         -9.1080    2.0080   -4.6680 c2        1 CY7     -0.042000
     43 CA         -8.5450    1.3000   -3.6750 c2        1 CY7     -0.201000
     44 C          -4.2860    3.8340   -2.9890 c1        1 CY7      0.932000
     45 O          -5.3210    3.2790   -2.7460 o         1 CY7     -0.465000
     46 N          -7.7880    1.8840   -2.5830 n4        1 CY7     -0.700400
     47 OXT        -3.2910    4.4100   -3.2600 o         1 CY7     -0.465000
     48 HAN         0.4180    0.5150    0.3830 ha        1 CY7      0.155000
     49 HAL         2.1840    1.7600   -0.9030 ha        1 CY7      0.156000
     50 HAK         1.4570    3.5300   -2.5560 ha        1 CY7      0.158000
     51 HAM        -1.0120    3.9740   -2.8420 h4        1 CY7      0.027100
     52 HAV1       -1.7910    0.2960    1.0740 h1        1 CY7      0.066700
     53 HAV2       -3.0180    1.6010    0.6520 h1        1 CY7      0.066700
     54 HAP        -4.5150    0.3850    1.4660 ha        1 CY7      0.163000
     55 HAR        -6.7270   -1.2220   -2.7170 ha        1 CY7      0.151000
     56 HAO        -6.9680    0.1450    1.4080 ha        1 CY7      0.150000
     57 HAS       -10.4820    0.3150   -2.0570 ha        1 CY7      0.159000
     58 HAQ        -9.6400   -4.0030    1.9520 h4        1 CY7      0.196000
     59 HBA       -11.8730   -3.2590    1.8350 hn        1 CY7      0.479800
     60 HAT       -13.7520   -2.0420    0.9290 ha        1 CY7      0.172000
     61 HAU1      -15.5240   -0.6610    1.1170 h1        1 CY7      0.061200
     62 HAU2      -15.7320   -1.9790   -0.1550 h1        1 CY7      0.061200
     63 HAA1      -17.3300   -0.4880   -1.4200 hc        1 CY7      0.064700
     64 HAA2      -17.1230    0.8130   -0.1730 hc        1 CY7      0.064700
     65 HAA3      -17.9020   -0.7650    0.2820 hc        1 CY7      0.064700
     66 HBB       -12.2470    1.7680   -2.7680 hn        1 CY7      0.492800
     67 HAX1      -14.5230    0.9530   -5.5930 hc        1 CY7      0.104200
     68 HAX2      -14.6670    2.2050   -4.2880 hc        1 CY7      0.104200
     69 HBT       -12.2910    1.5890   -6.1710 h1        1 CY7      0.091700
     70 HAY1      -13.8080    3.2020   -7.1110 hx        1 CY7      0.101700
     71 HAY2      -14.1500    3.9690   -5.4850 hx        1 CY7      0.101700
     72 HAB1      -11.1410    3.2260   -7.5940 hx        1 CY7      0.100700
     73 HAB2      -12.2480    4.3670   -8.5110 hx        1 CY7      0.100700
     74 HAB3      -10.7210    5.0070   -7.7290 hx        1 CY7      0.100700
     75 HAC1      -12.0800    6.6440   -6.6140 hx        1 CY7      0.100700
     76 HAC2      -13.3430    6.1240   -5.3930 hx        1 CY7      0.100700
     77 HAC3      -13.6790    5.9600   -7.1900 hx        1 CY7      0.100700
     78 HBC1       -9.6100    1.4760   -5.4920 ha        1 CY7      0.148000
     79 HBC2       -9.0320    3.1000   -4.7700 ha        1 CY7      0.148000
     80 HA         -8.6060    0.1980   -3.5960 hx        1 CY7      0.196000
     81 HN1        -7.5240    2.8540   -2.7820 hn        1 CY7      0.464800
     82 HN2        -8.3400    1.8510   -1.7190 hn        1 CY7      0.464800
     83 HBB2      -13.8220    1.5550   -2.0760 hn        1 CY7      0.492800
     84 HBU1      -11.6260    4.4550   -5.5510 hn        1 CY7      0.503800
     85 HN3        -6.9220    1.3350   -2.4360 hn        1 CY7      0.464800
@<TRIPOS>BOND
     1    1    2 ar  
     2    1    6 ar  
     3    1   48 1   
     4    2    3 ar  
     5    2   49 1   
     6    3    4 ar  
     7    3   50 1   
     8    4    5 ar  
     9    4   51 1   
    10    5    6 ar  
    11    6    7 1   
    12    7    8 1   
    13    7   52 1   
    14    7   53 1   
    15    8    9 1   
    16    9   10 ar  
    17    9   13 ar  
    18   10   11 ar  
    19   10   12 1   
    20   11   15 ar  
    21   11   55 1   
    22   13   14 ar  
    23   13   54 1   
    24   14   15 ar  
    25   14   56 1   
    26   15   16 1   
    27   16   17 2   
    28   17   18 1   
    29   17   20 1   
    30   18   19 ar  
    31   18   25 ar  
    32   19   31 ar  
    33   19   57 1   
    34   20   21 1   
    35   20   23 2   
    36   21   22 3   
    37   23   24 1   
    38   23   58 1   
    39   24   25 1   
    40   24   59 1   
    41   25   26 ar  
    42   26   27 ar  
    43   26   60 1   
    44   27   28 1   
    45   27   31 ar  
    46   28   29 1   
    47   29   30 1   
    48   29   61 1   
    49   29   62 1   
    50   30   63 1   
    51   30   64 1   
    52   30   65 1   
    53   31   32 1   
    54   32   33 1   
    55   32   66 1   
    56   32   83 1   
    57   33   34 2   
    58   33   35 1   
    59   35   36 1   
    60   35   67 1   
    61   35   68 1   
    62   36   37 1   
    63   36   41 1   
    64   36   69 1   
    65   37   38 1   
    66   37   70 1   
    67   37   71 1   
    68   38   39 1   
    69   38   40 1   
    70   38   84 1   
    71   39   72 1   
    72   39   73 1   
    73   39   74 1   
    74   40   75 1   
    75   40   76 1   
    76   40   77 1   
    77   42   43 2   
    78   42   78 1   
    79   42   79 1   
    80   43   46 1   
    81   43   80 1   
    82   44   45 2   
    83   44   47 2   
    84   46   81 1   
    85   46   82 1   
    86   46   85 1   
@<TRIPOS>SUBSTRUCTURE
     1 CY7         1 TEMP              0 ****  ****    0 ROOT
