@<TRIPOS>MOLECULE
CY7
   82    85     1     0     0
SMALL
bcc


@<TRIPOS>ATOM
      1 CAN        -9.5750   -0.8120   -0.8660 ca        1 CY7     -0.215300
      2 CAL       -10.8660   -1.3330   -0.9530 ca        1 CY7     -0.099000
      3 CAK       -11.9420   -0.4550   -1.0910 ca        1 CY7     -0.252300
      4 CAM       -11.6720    0.9250   -1.1330 ca        1 CY7      0.391200
      5 NAZ       -10.4380    1.4510   -1.0450 nb        1 CY7     -0.668000
      6 CBK        -9.3990    0.5880   -0.9150 ca        1 CY7      0.402600
      7 CAV        -8.0070    1.1650   -0.8550 c3        1 CY7      0.077100
      8 OBE        -7.1970    0.2300   -0.1180 os        1 CY7     -0.343900
      9 CBN        -5.8660    0.6240   -0.0450 ca        1 CY7      0.070100
     10 CBJ        -4.9340    0.2520   -1.0270 ca        1 CY7      0.023400
     11 CAR        -3.5840    0.5650   -0.8640 ca        1 CY7     -0.125000
     12 CLA        -5.4120   -0.5860   -2.4300 cl        1 CY7     -0.092400
     13 CAP        -5.4390    1.3170    1.0950 ca        1 CY7     -0.113000
     14 CAO        -4.0980    1.6330    1.2600 ca        1 CY7     -0.142000
     15 CBI        -3.1450    1.2640    0.2820 ca        1 CY7      0.178400
     16 NBC        -1.7680    1.4230    0.5130 ne        1 CY7     -0.615100
     17 CBP        -1.0920    2.5210    0.3840 cd        1 CY7      0.612200
     18 CBR         0.3560    2.5100    0.7270 ca        1 CY7     -0.143900
     19 CAS         1.0450    1.3030    0.8920 ca        1 CY7     -0.097000
     20 CBL        -1.5990    3.8370   -0.0420 cd        1 CY7     -0.251300
     21 CAJ        -2.8630    3.9610   -0.6630 ch        1 CY7      0.217500
     22 NAD        -3.8920    4.1000   -1.1910 n1        1 CY7     -0.390800
     23 CAQ        -0.8560    4.9800    0.1460 cc        1 CY7      0.161000
     24 NBA         0.3970    4.9610    0.6770 na        1 CY7     -0.602400
     25 CBQ         1.0460    3.7360    0.9050 ca        1 CY7      0.106600
     26 CAT         2.3960    3.7250    1.3030 ca        1 CY7     -0.171000
     27 CBO         3.0570    2.5170    1.4910 ca        1 CY7      0.087100
     28 OBD         4.3390    2.5540    2.0200 os        1 CY7     -0.351900
     29 CAU         5.3750    2.6260    1.0180 c3        1 CY7      0.119400
     30 CAA         6.6620    2.8760    1.7660 c3        1 CY7     -0.101100
     31 CBM         2.4070    1.2660    1.2590 ca        1 CY7      0.062600
     32 NBB         3.1290    0.0860    1.4360 n         1 CY7     -0.459100
     33 CBH         2.7710   -1.1930    1.0110 c         1 CY7      0.665100
     34 OAG         1.6610   -1.4480    0.5080 o         1 CY7     -0.602100
     35 CAX         3.8040   -2.2860    1.2420 c3        1 CY7     -0.133400
     36 CBT         4.9180   -2.3040    0.2180 c3        1 CY7     -0.005600
     37 CAY         4.3590   -2.5940   -1.1730 c3        1 CY7      0.189800
     38 NBU         5.3700   -2.8200   -2.1970 n3        1 CY7     -0.728600
     39 CAB         6.1300   -4.0360   -2.0070 c3        1 CY7      0.146600
     40 CAC         4.8180   -2.7120   -3.5280 c3        1 CY7      0.146600
     41 SG          5.8200   -0.7590    0.2710 ss        1 CY7     -0.415200
     42 CB          7.5140   -1.2850    0.4750 c3        1 CY7      0.053700
     43 CA          7.8150   -1.8410    1.8630 c3        1 CY7      0.011500
     44 C           8.1640   -3.3640    1.7450 c         1 CY7      0.888600
     45 O           9.2080   -3.7820    2.3130 o         1 CY7     -0.837300
     46 N           8.8130   -1.0550    2.5790 n3        1 CY7     -0.884800
     47 OXT         7.3590   -4.0970    1.0980 o         1 CY7     -0.837300
     48 HAN        -8.6980   -1.4670   -0.7510 ha        1 CY7      0.167000
     49 HAL       -11.0300   -2.4190   -0.9130 ha        1 CY7      0.136000
     50 HAK       -12.9720   -0.8230   -1.1660 ha        1 CY7      0.138000
     51 HAM       -12.4920    1.6570   -1.2400 h4        1 CY7      0.016100
     52 HAV1       -7.5990    1.2760   -1.8950 h1        1 CY7      0.064200
     53 HAV2       -7.9850    2.1570   -0.3300 h1        1 CY7      0.064200
     54 HAP        -6.1790    1.5980    1.8580 ha        1 CY7      0.145000
     55 HAR        -2.8570    0.2550   -1.6320 ha        1 CY7      0.161000
     56 HAO        -3.7760    2.1670    2.1670 ha        1 CY7      0.142000
     57 HAS         0.5080    0.3480    0.7280 ha        1 CY7      0.207000
     58 HAQ        -1.2550    5.9780   -0.1210 h4        1 CY7      0.155000
     59 HBA         0.9070    5.8020    0.8070 hn        1 CY7      0.451800
     60 HAT         2.9480    4.6610    1.4790 ha        1 CY7      0.143000
     61 HAU1        5.4100    1.6490    0.4600 h1        1 CY7      0.047700
     62 HAU2        5.1420    3.4620    0.3070 h1        1 CY7      0.047700
     63 HAA1        6.6060    3.8310    2.3410 hc        1 CY7      0.050700
     64 HAA2        6.8640    2.0420    2.4810 hc        1 CY7      0.050700
     65 HAA3        7.5020    2.9350    1.0330 hc        1 CY7      0.050700
     66 HBB         4.0930    0.2060    1.7090 hn        1 CY7      0.356500
     67 HAX1        4.2510   -2.1860    2.2680 hc        1 CY7      0.081700
     68 HAX2        3.2530   -3.2660    1.2050 hc        1 CY7      0.081700
     69 HBT         5.6470   -3.1200    0.5270 h1        1 CY7      0.170700
     70 HAY1        3.6680   -3.4870   -1.0830 h1        1 CY7      0.031200
     71 HAY2        3.7270   -1.7140   -1.4880 h1        1 CY7      0.031200
     72 HAB1        5.4980   -4.9640   -2.0870 h1        1 CY7      0.033533
     73 HAB2        6.9290   -4.0850   -2.7920 h1        1 CY7      0.033533
     74 HAB3        6.6260   -4.0250   -0.9950 h1        1 CY7      0.033533
     75 HAC1        4.3580   -1.6980   -3.6570 h1        1 CY7      0.033533
     76 HAC2        5.6490   -2.8250   -4.2730 h1        1 CY7      0.033533
     77 HAC3        4.0340   -3.4880   -3.7530 h1        1 CY7      0.033533
     78 HBC1        7.7300   -2.0660   -0.2960 h1        1 CY7      0.076700
     79 HBC2        8.1040   -0.3660    0.2380 h1        1 CY7      0.076700
     80 HA          6.8690   -1.7910    2.4800 h1        1 CY7      0.051700
     81 HN1         9.0090   -1.5380    3.4400 hn        1 CY7      0.335300
     82 HN2         9.6680   -1.0710    2.0490 hn        1 CY7      0.335300
@<TRIPOS>BOND
     1    1    2 ar  
     2    1    6 ar  
     3    1   48 1   
     4    2    3 ar  
     5    2   49 1   
     6    3    4 ar  
     7    3   50 1   
     8    4    5 ar  
     9    4   51 1   
    10    5    6 ar  
    11    6    7 1   
    12    7    8 1   
    13    7   52 1   
    14    7   53 1   
    15    8    9 1   
    16    9   10 ar  
    17    9   13 ar  
    18   10   11 ar  
    19   10   12 1   
    20   11   15 ar  
    21   11   55 1   
    22   13   14 ar  
    23   13   54 1   
    24   14   15 ar  
    25   14   56 1   
    26   15   16 1   
    27   16   17 2   
    28   17   18 1   
    29   17   20 1   
    30   18   19 ar  
    31   18   25 ar  
    32   19   31 ar  
    33   19   57 1   
    34   20   21 1   
    35   20   23 2   
    36   21   22 3   
    37   23   24 1   
    38   23   58 1   
    39   24   25 1   
    40   24   59 1   
    41   25   26 ar  
    42   26   27 ar  
    43   26   60 1   
    44   27   28 1   
    45   27   31 ar  
    46   28   29 1   
    47   29   30 1   
    48   29   61 1   
    49   29   62 1   
    50   30   63 1   
    51   30   64 1   
    52   30   65 1   
    53   31   32 1   
    54   32   33 1   
    55   32   66 1   
    56   33   34 2   
    57   33   35 1   
    58   35   36 1   
    59   35   67 1   
    60   35   68 1   
    61   36   37 1   
    62   36   41 1   
    63   36   69 1   
    64   37   38 1   
    65   37   70 1   
    66   37   71 1   
    67   38   39 1   
    68   38   40 1   
    69   39   72 1   
    70   39   73 1   
    71   39   74 1   
    72   40   75 1   
    73   40   76 1   
    74   40   77 1   
    75   41   42 1   
    76   42   43 1   
    77   42   78 1   
    78   42   79 1   
    79   43   44 1   
    80   43   46 1   
    81   43   80 1   
    82   44   45 1   
    83   44   47 1   
    84   46   81 1   
    85   46   82 1   
@<TRIPOS>SUBSTRUCTURE
     1 CY7         1 TEMP              0 ****  ****    0 ROOT
