@<TRIPOS>MOLECULE
CY8
   71    70     1     0     0
SMALL
bcc


@<TRIPOS>ATOM
      1 O01        -0.2980   -0.5060   -0.4950 os        1 CY8     -0.183000
      2 O02         7.2720    6.8360   -6.5210 o         1 CY8     -0.199000
      3 N03         0.4690   -0.1330    4.7220 n3        1 CY8     -0.285000
      4 C04         3.7440    1.5200   -3.9240 c3        1 CY8     -0.105000
      5 C05         3.2410    0.0780   -4.1260 c3        1 CY8     -0.128000
      6 C06         2.9610   -0.4010   -2.7000 c3        1 CY8     -0.075000
      7 C07         3.7500    2.3080   -5.2390 c3        1 CY8     -0.051000
      8 C08         1.1640   -0.4870   -0.3730 c3        1 CY8      0.074000
      9 C09         2.4700    0.8420   -2.0040 c2        1 CY8     -0.085000
     10 C10         2.9380    2.0580   -2.7380 c3        1 CY8     -0.119000
     11 C11         1.9450   -1.5140   -2.5660 c3        1 CY8     -0.147000
     12 C12         2.2720   -0.5070    3.1410 c1        1 CY8     -0.159000
     13 C13         1.6500   -1.7410   -1.0970 c3        1 CY8     -0.166000
     14 C14         1.6580    0.8120   -0.9370 c2        1 CY8     -0.133000
     15 C15         4.2730   -0.6780   -4.9320 c3        1 CY8     -0.206000
     16 C16         1.0970    0.2660    3.4690 c3        1 CY8     -0.002000
     17 C17         4.6620    1.5240   -6.2200 c3        1 CY8     -0.151000
     18 C18        -0.9560   -0.1890    0.6030 c1        1 CY8     -0.050000
     19 C19         4.3490    3.6860   -4.9180 c3        1 CY8     -0.152000
     20 C20         4.8690    0.0910   -6.0110 c1        1 CY8     -0.059000
     21 C22         4.2810    1.7120   -7.6840 c3        1 CY8     -0.178000
     22 C23         4.6100    4.5830   -6.0970 c3        1 CY8     -0.218000
     23 C24        -2.4240   -0.2220    0.4000 c3        1 CY8     -0.296000
     24 C25         7.2790    5.8100   -7.0870 c1        1 CY8      0.198000
     25 C26         3.2490   -1.1290    2.8410 c1        1 CY8     -0.226000
     26 C27         1.2030    2.0430   -0.2510 c3        1 CY8     -0.182000
     27 C28        -1.9590   -0.0360    4.0810 c2        1 CY8     -0.212000
     28 C29        -0.8340    0.4590    4.9360 c3        1 CY8     -0.053000
     29 C30        -3.1510   -0.3660    4.5700 c2        1 CY8     -0.219000
     30 H1          4.9800    5.5770   -5.7390 hc        1 CY8      0.075667
     31 H2          0.4120   -1.1330    4.7800 hn        1 CY8      0.158000
     32 H4          3.5710    2.7110   -2.0850 hc        1 CY8      0.096500
     33 H5          4.8200    1.4570   -3.5840 hc        1 CY8      0.083000
     34 H6          2.2690    0.0850   -4.6900 hc        1 CY8      0.102000
     35 H7          3.9270   -0.7280   -2.2190 hc        1 CY8      0.099000
     36 H8          2.0580    2.6660   -3.0700 hc        1 CY8      0.096500
     37 H9          1.0010   -1.2430   -3.1060 hc        1 CY8      0.090000
     38 H10         2.3440   -2.4560   -3.0230 hc        1 CY8      0.090000
     39 H11         1.4300   -0.5450    0.7240 h1        1 CY8      0.128000
     40 H12         2.5840   -2.0920   -0.5810 hc        1 CY8      0.096500
     41 H13         0.8750   -2.5440   -0.9910 hc        1 CY8      0.096500
     42 H14         3.8270   -1.6110   -5.3780 hc        1 CY8      0.137000
     43 H15         5.1280   -1.0200   -4.2770 hc        1 CY8      0.137000
     44 H16         0.3830    0.2100    2.5830 h1        1 CY8      0.109500
     45 H17         1.4010    1.3510    3.5870 h1        1 CY8      0.109500
     46 H18         3.6440    4.2050   -4.2120 hc        1 CY8      0.077500
     47 H19         5.3150    3.5340   -4.3640 hc        1 CY8      0.077500
     48 H20         5.7140    1.9440   -6.0920 hc        1 CY8      0.138000
     49 H24         5.0590    1.2450   -8.3360 hc        1 CY8      0.081667
     50 H25         3.3000    1.2280   -7.9030 hc        1 CY8      0.081667
     51 H26         5.3930    4.1500   -6.7690 hc        1 CY8      0.075667
     52 H27         3.6830    4.7550   -6.6950 hc        1 CY8      0.075667
     53 H28        -2.7580   -0.4700   -0.6370 hc        1 CY8      0.103000
     54 H29        -2.8480   -0.9790    1.1080 hc        1 CY8      0.103000
     55 H30         4.2050    2.7980   -7.9290 hc        1 CY8      0.081667
     56 H31         4.7580   -1.8100    0.3660 ha        1 CY8      0.001000
     57 H32         4.1180   -1.6740    2.5730 ha        1 CY8      0.220000
     58 H33         4.9170   -1.7850   -0.2920 ha        1 CY8      0.001000
     59 H34         2.0740    2.5680    0.2170 hc        1 CY8      0.087000
     60 H35         0.7280    2.7450   -0.9820 hc        1 CY8      0.087000
     61 H36         0.4590    1.8050    0.5520 hc        1 CY8      0.087000
     62 H37        -2.8260    0.7840    0.6810 hc        1 CY8      0.103000
     63 H38        -1.7460   -0.0890    2.9970 ha        1 CY8      0.145000
     64 H39        -1.0790    0.2900    6.0260 h1        1 CY8      0.096000
     65 H40        -0.7450    1.5740    4.7780 h1        1 CY8      0.096000
     66 H41        -3.9750   -0.7000    3.9260 ha        1 CY8      0.108500
     67 H42        -3.3910   -0.3240    5.6410 ha        1 CY8      0.108500
     68 C21         2.3480    2.4810   -5.7960 c3        1 CY8     -0.201000
     69 H21         1.6750    2.9400   -5.0330 hc        1 CY8      0.076333
     70 H22         1.9150    1.5000   -6.1050 hc        1 CY8      0.076333
     71 H23         2.3590    3.1500   -6.6910 hc        1 CY8      0.076333
@<TRIPOS>BOND
     1    1    8 1   
     2    1   18 1   
     3    2   24 1   
     4    3   16 1   
     5    3   28 1   
     6    3   31 1   
     7    4    5 1   
     8    4    7 1   
     9    4   10 1   
    10    4   33 1   
    11    5    6 1   
    12    5   15 1   
    13    5   34 1   
    14    6    9 1   
    15    6   11 1   
    16    6   35 1   
    17    7   17 1   
    18    7   19 1   
    19    7   68 1   
    20    8   13 1   
    21    8   14 1   
    22    8   39 1   
    23    9   10 1   
    24    9   14 1   
    25   10   32 1   
    26   10   36 1   
    27   11   13 1   
    28   11   37 1   
    29   11   38 1   
    30   12   16 1   
    31   12   25 1   
    32   13   40 1   
    33   13   41 1   
    34   14   26 1   
    35   15   20 1   
    36   15   42 1   
    37   15   43 1   
    38   16   44 1   
    39   16   45 1   
    40   17   20 1   
    41   17   21 1   
    42   17   48 1   
    43   18   23 1   
    44   19   22 1   
    45   19   46 1   
    46   19   47 1   
    47   21   49 1   
    48   21   50 1   
    49   21   55 1   
    50   22   30 1   
    51   22   51 1   
    52   22   52 1   
    53   23   53 1   
    54   23   54 1   
    55   23   62 1   
    56   25   57 1   
    57   26   59 1   
    58   26   60 1   
    59   26   61 1   
    60   27   28 1   
    61   27   29 1   
    62   27   63 1   
    63   28   64 1   
    64   28   65 1   
    65   29   66 1   
    66   29   67 1   
    67   56   58 1   
    68   68   69 1   
    69   68   70 1   
    70   68   71 1   
@<TRIPOS>SUBSTRUCTURE
     1 CY8         1 TEMP              0 ****  ****    0 ROOT
