@<TRIPOS>MOLECULE
CY8
   71    72     1     0     0
SMALL
bcc


@<TRIPOS>ATOM
      1 O01         0.5180   -0.7930   -0.1230 os        1 CY8     -0.176000
      2 O02         4.4140    4.1000   -9.1950 oh        1 CY8     -0.157000
      3 N03         0.8210    0.7470    3.5510 n7        1 CY8     -0.161000
      4 C04         3.8420    1.6920   -3.9160 c3        1 CY8     -0.108000
      5 C05         3.4340    0.2190   -4.1030 c3        1 CY8     -0.129000
      6 C06         3.4290   -0.3260   -2.6730 c3        1 CY8     -0.074000
      7 C07         3.5730    2.5130   -5.1850 c3        1 CY8     -0.048000
      8 C08         1.9800   -0.6500   -0.1300 c3        1 CY8      0.075000
      9 C09         2.9350    0.8430   -1.8590 c2        1 CY8     -0.086000
     10 C10         3.1860    2.1200   -2.5990 c3        1 CY8     -0.118000
     11 C11         2.5630   -1.5430   -2.4340 c3        1 CY8     -0.147000
     12 C12         2.2300   -0.9870    4.5900 c2        1 CY8     -0.188000
     13 C13         2.5070   -1.8270   -0.9460 c3        1 CY8     -0.165000
     14 C14         2.2910    0.7080   -0.6910 c2        1 CY8     -0.131000
     15 C15         4.3760   -0.4130   -5.1010 c3        1 CY8     -0.204000
     16 C16         1.6240    0.2130    4.5860 c2        1 CY8     -0.131000
     17 C17         4.4700    1.8830   -6.2840 c3        1 CY8     -0.125000
     18 C18        -0.0420   -0.7200    1.0670 c1        1 CY8     -0.057000
     19 C19         3.9810    3.9560   -4.8610 c3        1 CY8     -0.151000
     20 C20         4.7120    0.4400   -6.2280 c1        1 CY8     -0.069000
     21 C22         4.0810    2.2250   -7.7230 c3        1 CY8     -0.249000
     22 C23         4.0970    4.8940   -6.0310 c3        1 CY8     -0.222000
     23 C24        -1.5230   -0.8580    1.0040 c3        1 CY8     -0.227000
     24 C25         4.8930    3.3470   -8.2640 c1        1 CY8      0.025000
     25 C26         2.1990   -1.9960    3.5180 c3        1 CY8     -0.194000
     26 C27         1.8420    1.8660    0.1160 c3        1 CY8     -0.187000
     27 C28        -2.1550   -0.0810    2.1420 c3        1 CY8     -0.152000
     28 C29         0.3070    1.9440    3.5100 c1        1 CY8     -0.187000
     29 C30        -3.6540   -0.0320    2.0000 c3        1 CY8     -0.210000
     30 H1          3.4930    3.9120   -9.4860 ho        1 CY8      0.150000
     31 H2          0.6280    0.1230    2.7680 hn        1 CY8      0.281000
     32 H4          3.8570    2.8040   -2.0210 hc        1 CY8      0.099000
     33 H5          4.9580    1.7180   -3.7450 hc        1 CY8      0.084000
     34 H6          2.3850    0.1600   -4.5030 hc        1 CY8      0.102000
     35 H7          4.4860   -0.5620   -2.3640 hc        1 CY8      0.098000
     36 H8          2.2200    2.6610   -2.7680 hc        1 CY8      0.099000
     37 H9          1.5270   -1.3640   -2.8230 hc        1 CY8      0.091000
     38 H10         2.9860   -2.4280   -2.9750 hc        1 CY8      0.091000
     39 H11         2.3470   -0.7180    0.9350 h1        1 CY8      0.118000
     40 H12         3.5370   -2.0700   -0.5730 hc        1 CY8      0.094500
     41 H13         1.8540   -2.7200   -0.7610 hc        1 CY8      0.094500
     42 H14         5.3570   -0.6920   -4.6160 hc        1 CY8      0.136500
     43 H15         3.9430   -1.3720   -5.5040 hc        1 CY8      0.136500
     44 H16         2.8290   -1.2640    5.4740 ha        1 CY8      0.126000
     45 H17         1.7350    0.8930    5.4540 h4        1 CY8      0.136000
     46 H18         3.2210    4.3600   -4.1370 hc        1 CY8      0.079500
     47 H19         4.9670    3.9380   -4.3220 hc        1 CY8      0.079500
     48 H20         5.5220    2.3010   -6.1200 hc        1 CY8      0.167000
     49 H24         4.3290    1.3360   -8.3790 hc        1 CY8      0.114500
     50 H25         2.9770    2.4020   -7.8160 hc        1 CY8      0.114500
     51 H26         3.2850    4.7270   -6.7790 hc        1 CY8      0.081333
     52 H27         4.0310    5.9520   -5.6770 hc        1 CY8      0.081333
     53 H28        -1.9490   -0.5200    0.0210 hc        1 CY8      0.102000
     54 H29        -1.7620   -1.9530    1.1070 hc        1 CY8      0.102000
     55 H30         5.0840    4.7670   -6.5460 hc        1 CY8      0.081333
     56 H31         3.1650   -1.9740    2.9510 hc        1 CY8      0.086000
     57 H32         1.3650   -1.8350    2.7880 hc        1 CY8      0.086000
     58 H33         2.0800   -3.0190    3.9570 hc        1 CY8      0.086000
     59 H34         2.7020    2.2760    0.7040 hc        1 CY8      0.092667
     60 H35         1.0330    1.5750    0.8340 hc        1 CY8      0.092667
     61 H36         1.4530    2.6810   -0.5440 hc        1 CY8      0.092667
     62 H37        -1.7340    0.9620    2.1690 hc        1 CY8      0.101000
     63 H38        -1.8810   -0.5660    3.1160 hc        1 CY8      0.101000
     64 H39         0.5130    2.6190    4.3680 ha        1 CY8      0.035000
     65 H40        -4.1030    0.5210    2.8600 hc        1 CY8      0.071667
     66 H41        -4.0850   -1.0620    1.9790 hc        1 CY8      0.071667
     67 H42        -3.9460    0.4880    1.0560 hc        1 CY8      0.071667
     68 C21         2.1000    2.4720   -5.5610 c3        1 CY8     -0.204000
     69 H21         1.4600    2.5560   -4.6500 hc        1 CY8      0.076333
     70 H22         1.8470    1.5150   -6.0790 hc        1 CY8      0.076333
     71 H23         1.8380    3.3200   -6.2380 hc        1 CY8      0.076333
@<TRIPOS>BOND
     1    1    8 1   
     2    1   18 1   
     3    2   24 1   
     4    2   30 1   
     5    3   16 1   
     6    3   28 1   
     7    3   31 1   
     8    4    5 1   
     9    4    7 1   
    10    4   10 1   
    11    4   33 1   
    12    5    6 1   
    13    5   15 1   
    14    5   34 1   
    15    6    9 1   
    16    6   11 1   
    17    6   35 1   
    18    7   17 1   
    19    7   19 1   
    20    7   68 1   
    21    8   13 1   
    22    8   14 1   
    23    8   39 1   
    24    9   10 1   
    25    9   14 1   
    26   10   32 1   
    27   10   36 1   
    28   11   13 1   
    29   11   37 1   
    30   11   38 1   
    31   12   16 1   
    32   12   25 1   
    33   12   44 1   
    34   13   40 1   
    35   13   41 1   
    36   14   26 1   
    37   15   20 1   
    38   15   42 1   
    39   15   43 1   
    40   16   45 1   
    41   17   20 1   
    42   17   21 1   
    43   17   48 1   
    44   18   23 1   
    45   19   22 1   
    46   19   46 1   
    47   19   47 1   
    48   21   24 1   
    49   21   49 1   
    50   21   50 1   
    51   22   51 1   
    52   22   52 1   
    53   22   55 1   
    54   23   27 1   
    55   23   53 1   
    56   23   54 1   
    57   25   56 1   
    58   25   57 1   
    59   25   58 1   
    60   26   59 1   
    61   26   60 1   
    62   26   61 1   
    63   27   29 1   
    64   27   62 1   
    65   27   63 1   
    66   28   64 1   
    67   29   65 1   
    68   29   66 1   
    69   29   67 1   
    70   68   69 1   
    71   68   70 1   
    72   68   71 1   
@<TRIPOS>SUBSTRUCTURE
     1 CY8         1 TEMP              0 ****  ****    0 ROOT
