@<TRIPOS>MOLECULE
CYB
   80    80     1     0     0
SMALL
bcc


@<TRIPOS>ATOM
      1 CHA        -0.3820   -0.0470   -0.0780 ce        1 CYB     -0.106600
      2 NA          1.8620    0.2060    0.9410 nd        1 CYB     -0.583300
      3 C1A         0.9640   -0.0950   -0.1490 cd        1 CYB      0.095600
      4 C2A         1.7880   -0.4330   -1.3620 cd        1 CYB     -0.031200
      5 C3A         3.1010   -0.2910   -0.9850 cc        1 CYB     -0.248800
      6 C4A         3.0880    0.0810    0.4610 cc        1 CYB      0.416600
      7 CMA         4.3140   -0.4300   -1.7900 c3        1 CYB     -0.057900
      8 CAA         1.2490   -0.7520   -2.6920 c3        1 CYB     -0.037200
      9 CBA         1.8870   -1.9640   -3.3450 c3        1 CYB     -0.190400
     10 CGA         2.7320   -1.6320   -4.5880 c         1 CYB      0.901600
     11 O1A         3.0210   -0.4250   -4.8450 o         1 CYB     -0.853800
     12 O2A         3.1290   -2.6020   -5.2950 o         1 CYB     -0.853800
     13 CHB         4.3460    0.2750    1.2240 c3        1 CYB     -0.111700
     14 NB          3.4780    0.3400    3.6010 n         1 CYB     -0.551900
     15 C1B         4.2980   -0.3640    2.6130 c3        1 CYB      0.119900
     16 C2B         5.6950   -0.3980    3.2530 c2        1 CYB     -0.085400
     17 C3B         5.6600    0.2620    4.4330 ce        1 CYB     -0.248200
     18 C4B         4.2700    0.7900    4.6550 c         1 CYB      0.682700
     19 CMB         6.8110   -1.0900    2.6080 c3        1 CYB     -0.057900
     20 CAB         6.6300    1.6690    7.6020 c2        1 CYB     -0.226000
     21 CBB         7.1870    2.7090    8.2070 c2        1 CYB     -0.226000
     22 OB          3.8740    1.4650    5.6230 o         1 CYB     -0.666500
     23 NC         -1.0930    4.2360    4.4350 n         1 CYB     -0.560900
     24 C1C        -1.1860    4.8570    5.6880 c         1 CYB      0.682700
     25 C2C        -0.4860    3.9740    6.6760 ce        1 CYB     -0.259200
     26 C3C        -0.0950    2.8360    6.0550 c2        1 CYB     -0.058400
     27 C4C        -0.5140    2.8940    4.5750 c3        1 CYB      0.103900
     28 CBC         0.8400    1.7440    8.0840 c3        1 CYB     -0.084100
     29 ND         -0.7930    1.4880    1.8070 n2        1 CYB     -0.564900
     30 C1D        -1.8880    1.7340    2.7710 c3        1 CYB      0.110700
     31 C2D        -2.9240    0.6420    2.5030 c2        1 CYB     -0.176400
     32 C3D        -2.4670   -0.1230    1.4610 ce        1 CYB     -0.000300
     33 C4D        -1.1340    0.4540    1.0630 ce        1 CYB      0.490900
     34 CGD        -4.6170   -3.2470    0.0100 c         1 CYB      0.907800
     35 O1D        -5.8270   -2.9710   -0.2310 o         1 CYB     -0.807800
     36 O2D        -4.1150   -4.3990   -0.0830 o         1 CYB     -0.807800
     37 HHA        -1.0030   -0.3890   -0.9260 ha        1 CYB      0.169000
     38 HMA1        4.8180   -1.4070   -1.5770 hc        1 CYB      0.056033
     39 HMA2        5.0360    0.3950   -1.5630 hc        1 CYB      0.056033
     40 HMA3        4.0580   -0.3950   -2.8880 hc        1 CYB      0.056033
     41 HAA1        1.4330    0.1400   -3.3640 hc        1 CYB      0.064700
     42 HAA2        0.1380   -0.9020   -2.6240 hc        1 CYB      0.064700
     43 HBA1        1.0900   -2.6860   -3.6550 hc        1 CYB      0.036700
     44 HBA2        2.5580   -2.4940   -2.6220 hc        1 CYB      0.036700
     45 HHB1        5.1870   -0.2060    0.6530 hc        1 CYB      0.067700
     46 HHB2        4.5660    1.3740    1.2990 hc        1 CYB      0.067700
     47 HB          2.5980    0.7230    3.3550 hn        1 CYB      0.358500
     48 H1B         3.9040   -1.4190    2.5170 h1        1 CYB      0.092700
     49 HMB1        6.4800   -2.0860    2.2170 hc        1 CYB      0.053033
     50 HMB2        7.1900   -0.4870    1.7430 hc        1 CYB      0.053033
     51 HMB3        7.6560   -1.2480    3.3240 hc        1 CYB      0.053033
     52 HAB1        6.4480    0.4370    5.1640 ha        1 CYB      0.160000
     53 HAB2        5.6760    1.7340    7.0510 ha        1 CYB      0.113000
     54 HBB1        6.7350    3.7090    8.1980 ha        1 CYB      0.113000
     55 HBB2        7.0840    0.6680    7.6130 ha        1 CYB      0.113000
     56 HBB3        8.1360    2.6420    8.7550 ha        1 CYB      0.113000
     57 HC         -1.7080    4.4370    3.6900 hn        1 CYB      0.321500
     58 H2C        -0.3530    4.2780    7.7110 ha        1 CYB      0.158000
     59 H4C         0.4030    2.8360    3.9190 h1        1 CYB      0.107700
     60 HAC1        1.6750    1.6700    6.0890 hc        1 CYB      0.083200
     61 HAC2        0.1360    0.7380    6.3060 hc        1 CYB      0.083200
     62 HBC1        1.4100    2.6580    8.3810 hc        1 CYB      0.031700
     63 HBC2       -0.1480    1.7620    8.6040 hc        1 CYB      0.031700
     64 HBC3        1.4090    0.8470    8.4270 hc        1 CYB      0.031700
     65 HD         -2.3420    2.7300    2.4970 h1        1 CYB      0.073700
     66 HAD1       -6.4700   -1.4810    1.3490 ha        1 CYB     -0.001500
     67 HAD2       -6.7680   -1.0800    1.8120 ha        1 CYB     -0.001500
     68 HBD1       -6.2430   -5.2520   -0.6200 ha        1 CYB     -0.001500
     69 HBD2       -6.6770   -5.7630   -0.7410 ha        1 CYB     -0.001500
     70 CMD        -4.1700    0.5240    3.2560 c3        1 CYB     -0.036900
     71 CHD        -1.4550    1.7400    4.2310 c3        1 CYB     -0.061400
     72 CAC         0.6600    1.6940    6.5870 c3        1 CYB     -0.061200
     73 HHD1       -0.9270    0.7790    4.4700 hc        1 CYB      0.059700
     74 HHD2       -2.3810    1.7900    4.8630 hc        1 CYB      0.059700
     75 HMD1       -4.8940   -0.1430    2.7180 hc        1 CYB      0.044367
     76 HMD2       -4.6430    1.5280    3.3980 hc        1 CYB      0.044367
     77 HMD3       -3.9740    0.0860    4.2680 hc        1 CYB      0.044367
     78 CAD        -3.1100   -1.2100    0.8860 cg        1 CYB     -0.300300
     79 OC         -1.7230    5.9580    5.8970 o         1 CYB     -0.652500
     80 CBD        -3.7570   -2.1350    0.4670 ch        1 CYB     -0.009200
@<TRIPOS>BOND
     1    1    3 2   
     2    1   33 1   
     3    1   37 1   
     4    2    3 1   
     5    2    6 2   
     6    3    4 1   
     7    4    5 2   
     8    4    8 1   
     9    5    6 1   
    10    5    7 1   
    11    6   13 1   
    12    7   38 1   
    13    7   39 1   
    14    7   40 1   
    15    8    9 1   
    16    8   41 1   
    17    8   42 1   
    18    9   10 1   
    19    9   43 1   
    20    9   44 1   
    21   10   11 1   
    22   10   12 1   
    23   13   15 1   
    24   13   45 1   
    25   13   46 1   
    26   14   15 1   
    27   14   18 1   
    28   14   47 1   
    29   15   16 1   
    30   15   48 1   
    31   16   17 2   
    32   16   19 1   
    33   17   18 1   
    34   17   52 1   
    35   18   22 2   
    36   19   49 1   
    37   19   50 1   
    38   19   51 1   
    39   20   21 2   
    40   20   53 1   
    41   20   55 1   
    42   21   54 1   
    43   21   56 1   
    44   23   24 1   
    45   23   27 1   
    46   23   57 1   
    47   24   25 1   
    48   24   79 2   
    49   25   26 2   
    50   25   58 1   
    51   26   27 1   
    52   26   72 1   
    53   27   59 1   
    54   27   71 1   
    55   28   62 1   
    56   28   63 1   
    57   28   64 1   
    58   28   72 1   
    59   29   30 1   
    60   29   33 2   
    61   30   31 1   
    62   30   65 1   
    63   30   71 1   
    64   31   32 2   
    65   31   70 1   
    66   32   33 1   
    67   32   78 1   
    68   34   35 1   
    69   34   36 1   
    70   34   80 1   
    71   60   72 1   
    72   61   72 1   
    73   66   67 1   
    74   68   69 1   
    75   70   75 1   
    76   70   76 1   
    77   70   77 1   
    78   71   73 1   
    79   71   74 1   
    80   78   80 3   
@<TRIPOS>SUBSTRUCTURE
     1 CYB         1 TEMP              0 ****  ****    0 ROOT
