@<TRIPOS>MOLECULE
CYB
   80    77     1     0     0
SMALL
bcc


@<TRIPOS>ATOM
      1 CHA         0.1090   -0.0650    0.1340 c2        1 CYB      0.056000
      2 NA          2.4970    0.2610    0.7690 n2        1 CYB     -0.211000
      3 C1A         1.4940   -0.0670   -0.1480 c2        1 CYB     -0.210000
      4 C2A         2.0870   -0.4180   -1.4300 c2        1 CYB     -0.074000
      5 C3A         3.4770   -0.2920   -1.2590 c2        1 CYB     -0.211000
      6 C4A         3.6780    0.1240    0.1150 c2        1 CYB     -0.184000
      7 CMA         4.5240   -0.5230   -2.2520 c3        1 CYB     -0.125000
      8 CAA         1.3930   -0.7980   -2.6730 c3        1 CYB     -0.092000
      9 CBA         1.6170   -2.2430   -3.0730 c3        1 CYB     -0.207000
     10 CGA         1.2830   -2.5100   -4.5460 c2        1 CYB      0.321000
     11 O1A         1.6230   -1.6660   -5.4280 o         1 CYB     -0.605000
     12 O2A         0.7040   -3.6020   -4.8360 o         1 CYB     -0.605000
     13 CHB         5.0020    0.3830    0.7180 c3        1 CYB     -0.063000
     14 NB          4.4100    0.0990    3.1670 ns        1 CYB     -0.337000
     15 C1B         5.2010   -0.3880    2.0280 c3        1 CYB      0.026000
     16 C2B         6.6490   -0.2970    2.5270 c2        1 CYB     -0.071000
     17 C3B         6.6650    0.2470    3.7660 c2        1 CYB     -0.250000
     18 C4B         5.2530    0.5690    4.1690 c2        1 CYB      0.320000
     19 CMB         7.7670   -0.7740    1.7110 c3        1 CYB     -0.177000
     20 CAB         4.8200    2.1090    9.6090 c1        1 CYB     -0.233500
     21 CBB         4.8000    1.8250    8.4470 c1        1 CYB     -0.233500
     22 OB          4.8880    1.1060    5.2350 o         1 CYB     -0.429000
     23 NC         -1.7440    3.1090    5.1800 ns        1 CYB     -0.358000
     24 C1C        -2.0580    3.6120    6.4460 c2        1 CYB      0.317000
     25 C2C        -0.8320    3.4640    7.3060 c2        1 CYB     -0.227000
     26 C3C         0.1110    2.8010    6.6060 c2        1 CYB     -0.123000
     27 C4C        -0.4170    2.4830    5.2070 c3        1 CYB      0.015000
     28 CBC        -5.7500    2.3050    5.9590 c2        1 CYB     -0.553000
     29 ND          0.1490    0.6990    2.5140 na        1 CYB     -0.177000
     30 C1D        -0.8000    0.6700    3.5510 c2        1 CYB     -0.023000
     31 C2D        -2.0720    0.4280    3.0600 c2        1 CYB     -0.218000
     32 C3D        -1.9470    0.1510    1.6130 c2        1 CYB      0.088000
     33 C4D        -0.5030    0.2400    1.3180 c2        1 CYB     -0.164000
     34 CGD        -5.1420   -2.9680    2.2130 c1        1 CYB      0.423000
     35 O1D        -4.8910   -2.7410    3.3540 o         1 CYB     -0.212500
     36 O2D        -5.4290   -3.2230    1.0870 o         1 CYB     -0.212500
     37 HHA        -0.5550   -0.3620   -0.7000 ha        1 CYB      0.137000
     38 HMA1        5.1290   -1.4310   -1.9940 hc        1 CYB      0.054333
     39 HMA2        5.2280    0.3470   -2.3070 hc        1 CYB      0.054333
     40 HMA3        4.0750   -0.6820   -3.2660 hc        1 CYB      0.054333
     41 HAA1        1.7630   -0.1460   -3.5160 hc        1 CYB      0.079500
     42 HAA2        0.2910   -0.6110   -2.5770 hc        1 CYB      0.079500
     43 HBA1        1.0030   -2.9200   -2.4280 hc        1 CYB      0.062500
     44 HBA2        2.6940   -2.5110   -2.9210 hc        1 CYB      0.062500
     45 HHB1        5.7990    0.0450    0.0010 hc        1 CYB      0.075000
     46 HHB2        5.1460    1.4820    0.8980 hc        1 CYB      0.075000
     47 HB          3.4960    0.4540    3.0090 hn        1 CYB      0.268000
     48 H1B         4.9260   -1.4690    1.8550 h1        1 CYB      0.134000
     49 HMB1        7.5410   -1.7920    1.3010 hc        1 CYB      0.088333
     50 HMB2        7.9280   -0.0830    0.8440 hc        1 CYB      0.088333
     51 HMB3        8.7120   -0.8260    2.3050 hc        1 CYB      0.088333
     52 HAB1        4.8350    2.3600   10.6370 ha        1 CYB      0.231500
     53 HAB2        7.5010    0.4610    4.4270 ha        1 CYB      0.150000
     54 HBB1        4.7820    1.5720    7.4070 ha        1 CYB      0.231500
     55 HBB2        7.5050    1.6810    6.6200 ha        1 CYB      0.000500
     56 HBB3        6.8650    1.5880    6.4140 ha        1 CYB      0.000500
     57 HC         -2.4210    2.7910    4.5300 hn        1 CYB      0.253000
     58 H2C        -0.8090    3.8530    8.3210 ha        1 CYB      0.158000
     59 H4C         0.2270    2.9870    4.4270 h1        1 CYB      0.149000
     60 HAC1        2.4110    0.6830    6.7550 ha        1 CYB      0.000500
     61 HAC2        2.8700    0.7170    6.2560 ha        1 CYB      0.000500
     62 HBC1        1.1190    2.5020    6.8980 ha        1 CYB      0.165000
     63 HBC2       -5.3520    1.5910    5.2180 ha        1 CYB      0.216500
     64 HBC3       -4.9930    3.0720    6.2370 ha        1 CYB      0.216500
     65 HD          1.0670    0.3580    2.6940 hn        1 CYB      0.226000
     66 HAD1       -6.1390   -0.6690    2.1300 ha        1 CYB      0.000500
     67 HAD2       -5.5910   -0.4860    1.7710 ha        1 CYB      0.000500
     68 HBD1       -4.2600   -1.3710   -0.2490 ha        1 CYB      0.097000
     69 HBD2       -4.4040    0.4410   -0.6120 ha        1 CYB      0.097000
     70 CMD        -3.3470    0.4400    3.7730 c3        1 CYB     -0.137000
     71 CHD        -0.4150    0.9720    4.9530 c3        1 CYB     -0.118000
     72 CAC        -6.9450    2.2830    6.4650 c1        1 CYB      0.114000
     73 HHD1       -1.1250    0.4550    5.6510 hc        1 CYB      0.101000
     74 HHD2        0.6200    0.5930    5.1770 hc        1 CYB      0.101000
     75 HMD1       -3.9410   -0.4780    3.5230 hc        1 CYB      0.063000
     76 HMD2       -3.9600    1.3300    3.4730 hc        1 CYB      0.063000
     77 HMD3       -3.2000    0.4720    4.8820 hc        1 CYB      0.063000
     78 CAD        -2.9260   -0.1100    0.7790 c1        1 CYB     -0.260000
     79 OC         -3.1490    4.1160    6.7700 o         1 CYB     -0.393000
     80 CBD        -3.8950   -0.3520   -0.0440 c2        1 CYB     -0.176000
@<TRIPOS>BOND
     1    1    3 1   
     2    1   33 1   
     3    1   37 1   
     4    2    3 1   
     5    2    6 1   
     6    3    4 1   
     7    4    5 1   
     8    4    8 1   
     9    5    6 1   
    10    5    7 1   
    11    6   13 1   
    12    7   38 1   
    13    7   39 1   
    14    7   40 1   
    15    8    9 1   
    16    8   41 1   
    17    8   42 1   
    18    9   10 1   
    19    9   43 1   
    20    9   44 1   
    21   10   11 1   
    22   10   12 1   
    23   13   15 1   
    24   13   45 1   
    25   13   46 1   
    26   14   15 1   
    27   14   18 1   
    28   14   47 1   
    29   15   16 1   
    30   15   48 1   
    31   16   17 1   
    32   16   19 1   
    33   17   18 1   
    34   17   53 1   
    35   18   22 1   
    36   19   49 1   
    37   19   50 1   
    38   19   51 1   
    39   20   21 1   
    40   20   52 1   
    41   21   54 1   
    42   23   24 1   
    43   23   27 1   
    44   23   57 1   
    45   24   25 1   
    46   24   79 1   
    47   25   26 1   
    48   25   58 1   
    49   26   27 1   
    50   26   62 1   
    51   27   59 1   
    52   27   71 1   
    53   28   63 1   
    54   28   64 1   
    55   28   72 1   
    56   29   30 1   
    57   29   33 1   
    58   29   65 1   
    59   30   31 1   
    60   30   71 1   
    61   31   32 1   
    62   31   70 1   
    63   32   33 1   
    64   32   78 1   
    65   34   35 1   
    66   34   36 1   
    67   55   56 1   
    68   60   61 1   
    69   66   67 1   
    70   68   80 1   
    71   69   80 1   
    72   70   75 1   
    73   70   76 1   
    74   70   77 1   
    75   71   73 1   
    76   71   74 1   
    77   78   80 1   
@<TRIPOS>SUBSTRUCTURE
     1 CYB         1 TEMP              0 ****  ****    0 ROOT
