@<TRIPOS>MOLECULE
CYB
   80    75     1     0     0
SMALL
bcc


@<TRIPOS>ATOM
      1 CHA        -1.1580   -0.2630   -1.8720 c1        1 CYB      0.043000
      2 NA          1.2400   -0.2420   -0.7760 n1        1 CYB     -0.196000
      3 C1A         0.2350   -0.2160   -1.9220 c1        1 CYB     -0.129000
      4 C2A         1.1680   -0.1230   -3.1630 c2        1 CYB     -0.019000
      5 C3A         2.5430   -0.1040   -2.7330 c1        1 CYB     -0.173000
      6 C4A         2.5930   -0.1730   -1.3060 c1        1 CYB     -0.039000
      7 CMA         3.5600    0.7270   -3.4870 c3        1 CYB     -0.178000
      8 CAA         0.7830   -0.8180   -4.4610 c3        1 CYB     -0.117000
      9 CBA         0.7510    0.1950   -5.5860 c3        1 CYB     -0.219000
     10 CGA         0.2840   -0.4800   -6.8630 c2        1 CYB      0.325000
     11 O1A        -0.9470   -0.5650   -7.1150 o         1 CYB     -0.588500
     12 O2A         1.1240   -0.8530   -7.7160 o         1 CYB     -0.588500
     13 CHB         3.6910    0.6020   -0.5320 c3        1 CYB     -0.113000
     14 NB          4.3850   -0.4260    1.5730 n3        1 CYB     -0.353000
     15 C1B         4.6100   -0.3070    0.0160 c3        1 CYB      0.028000
     16 C2B         5.9270    0.2520   -0.0110 c2        1 CYB     -0.079000
     17 C3B         6.5140    0.3110    1.1580 c1        1 CYB     -0.167000
     18 C4B         5.7450   -0.1350    2.1950 c1        1 CYB      0.322000
     19 CMB         6.7580    0.1650   -1.2700 c3        1 CYB     -0.177000
     20 CAB         8.0290    0.2390    1.2520 c3        1 CYB     -0.095000
     21 CBB         8.5440    1.4370    2.0110 c3        1 CYB     -0.210000
     22 OB          6.0450   -0.1840    3.3680 o         1 CYB     -0.366000
     23 NC         -5.3130    2.3640    1.2840 n         1 CYB     -0.369000
     24 C1C        -6.2250    3.4180    1.9420 c2        1 CYB      0.320000
     25 C2C        -6.2080    3.1050    3.2960 c2        1 CYB     -0.223000
     26 C3C        -5.5550    1.9930    3.5850 c1        1 CYB     -0.076000
     27 C4C        -5.0150    1.3020    2.4310 c2        1 CYB      0.026000
     28 CAC        -5.8970    1.2230    4.8320 c3        1 CYB     -0.125000
     29 CBC        -5.7610    2.1260    6.0340 c3        1 CYB     -0.209000
     30 OC         -6.7490    4.3760    1.4120 o         1 CYB     -0.364000
     31 CHD        -3.5830    0.9130    2.5560 c3        1 CYB     -0.099000
     32 ND         -2.0550    0.5940    0.4620 n2        1 CYB     -0.149000
     33 C1D        -3.1180    0.2110    1.2490 c2        1 CYB     -0.117000
     34 C2D        -3.6050   -0.9880    0.7550 c1        1 CYB     -0.119000
     35 C3D        -2.8460   -1.3380   -0.3240 c1        1 CYB     -0.040000
     36 C4D        -1.8820   -0.3550   -0.5070 c1        1 CYB     -0.099000
     37 CMD        -4.7190   -1.8110    1.3590 c2        1 CYB     -0.181000
     38 CAD        -3.0760   -2.5370   -1.2210 c2        1 CYB     -0.107000
     39 CBD        -2.4950   -3.7730   -0.5700 c3        1 CYB     -0.220000
     40 CGD        -2.9790   -5.0070   -1.3080 c2        1 CYB      0.325000
     41 O1D        -2.4100   -5.3680   -2.3690 o         1 CYB     -0.589000
     42 O2D        -3.9530   -5.6610   -0.8660 o         1 CYB     -0.589000
     43 HHA        -1.6820   -0.2370   -2.7050 ha        1 CYB      0.159000
     44 HMA1        3.4790    1.6640   -3.2180 hc        1 CYB      0.092333
     45 HMA2        4.4690    0.4030   -3.2780 hc        1 CYB      0.092333
     46 HMA3        3.3990    0.6490   -4.4450 hc        1 CYB      0.092333
     47 HAA1       -0.1040   -1.2280   -4.3640 hc        1 CYB      0.099500
     48 HAA2        1.4410   -1.5110   -4.6670 hc        1 CYB      0.099500
     49 HBA1        1.6440    0.5610   -5.7200 hc        1 CYB      0.072000
     50 HBA2        0.1340    0.9180   -5.3560 hc        1 CYB      0.072000
     51 HHB1        3.2790    1.1210    0.1850 hc        1 CYB      0.103000
     52 HHB2        4.1600    1.2100   -1.1480 hc        1 CYB      0.103000
     53 HB          3.6420   -0.7420    1.9990 hn        1 CYB      0.253000
     54 H1B         4.4410   -1.1000   -0.5290 h1        1 CYB      0.135000
     55 HMB1        7.2310   -0.6940   -1.2900 hc        1 CYB      0.091000
     56 HMB2        7.4110    0.9000   -1.2830 hc        1 CYB      0.091000
     57 HMB3        6.1750    0.2330   -2.0500 hc        1 CYB      0.091000
     58 HAB1        8.4110    0.2360    0.3520 hc        1 CYB      0.083000
     59 HAB2        8.2870   -0.5770    1.7180 hc        1 CYB      0.083000
     60 HBB1        8.6610    1.1990    2.9540 hc        1 CYB      0.077333
     61 HBB2        7.8970    2.1750    1.9370 hc        1 CYB      0.077333
     62 HBB3        9.4010    1.7160    1.6360 hc        1 CYB      0.077333
     63 HC         -5.1140    2.2870    0.4010 hn        1 CYB      0.251000
     64 H2C        -6.9320    3.4140    3.8790 ha        1 CYB      0.158000
     65 H4C        -5.4480    0.4420    2.2700 h4        1 CYB      0.136000
     66 HAC1       -5.2900    0.4680    4.9240 hc        1 CYB      0.103500
     67 HAC2       -6.8180    0.8960    4.7720 hc        1 CYB      0.103500
     68 HBC1       -6.0770    3.0250    5.8050 hc        1 CYB      0.073333
     69 HBC2       -4.8230    2.1690    6.3040 hc        1 CYB      0.073333
     70 HBC3       -6.2980    1.7690    6.7730 hc        1 CYB      0.073333
     71 HHD1       -3.4770    0.2980    3.3130 hc        1 CYB      0.099500
     72 HHD2       -3.0390    1.7160    2.7080 hc        1 CYB      0.099500
     73 HD         -1.5760    1.3610    0.5490 DU        1 CYB      0.262000
     74 HMD1       -5.4090   -1.2170    1.7090 ha        1 CYB      0.094000
     75 HMD2       -4.3600   -2.3620    2.0900 ha        1 CYB      0.094000
     76 HMD3       -5.1060   -2.3930    0.6710 ha        1 CYB      0.094000
     77 HAD1       -2.6410   -2.3880   -2.0810 ha        1 CYB      0.096500
     78 HAD2       -4.0420   -2.6630   -1.3600 ha        1 CYB      0.096500
     79 HBD1       -1.5210   -3.7320   -0.6070 hc        1 CYB      0.071500
     80 HBD2       -2.7850   -3.8160    0.3620 hc        1 CYB      0.071500
@<TRIPOS>BOND
     1    1    3 1   
     2    1   43 1   
     3    2    6 1   
     4    3    4 1   
     5    4    5 1   
     6    4    8 1   
     7    5    7 1   
     8    6   13 1   
     9    7   44 1   
    10    7   45 1   
    11    7   46 1   
    12    8    9 1   
    13    8   47 1   
    14    8   48 1   
    15    9   10 1   
    16    9   49 1   
    17    9   50 1   
    18   10   11 1   
    19   10   12 1   
    20   13   15 1   
    21   13   51 1   
    22   13   52 1   
    23   14   15 1   
    24   14   18 1   
    25   14   53 1   
    26   15   16 1   
    27   15   54 1   
    28   16   17 1   
    29   16   19 1   
    30   17   20 1   
    31   18   22 1   
    32   19   55 1   
    33   19   56 1   
    34   19   57 1   
    35   20   21 1   
    36   20   58 1   
    37   20   59 1   
    38   21   60 1   
    39   21   61 1   
    40   21   62 1   
    41   23   24 1   
    42   23   27 1   
    43   23   63 1   
    44   24   25 1   
    45   24   30 1   
    46   25   26 1   
    47   25   64 1   
    48   26   28 1   
    49   27   31 1   
    50   27   65 1   
    51   28   29 1   
    52   28   66 1   
    53   28   67 1   
    54   29   68 1   
    55   29   69 1   
    56   29   70 1   
    57   31   33 1   
    58   31   71 1   
    59   31   72 1   
    60   32   33 1   
    61   32   36 1   
    62   33   34 1   
    63   34   35 1   
    64   35   36 1   
    65   37   74 1   
    66   37   75 1   
    67   37   76 1   
    68   38   39 1   
    69   38   77 1   
    70   38   78 1   
    71   39   40 1   
    72   39   79 1   
    73   39   80 1   
    74   40   41 1   
    75   40   42 1   
@<TRIPOS>SUBSTRUCTURE
     1 CYB         1 TEMP              0 ****  ****    0 ROOT
