@<TRIPOS>MOLECULE
CYB
   80    77     1     0     0
SMALL
bcc


@<TRIPOS>ATOM
      1 CHA         0.7680   -0.0970   -0.8140 c2        1 CYB      0.023000
      2 NA          2.6640    0.2670    0.7510 n2        1 CYB     -0.183000
      3 C1A         2.0790    0.1130   -0.5520 c2        1 CYB     -0.111000
      4 C2A         3.1610    0.2560   -1.5750 c2        1 CYB     -0.033000
      5 C3A         4.3240    0.4990   -0.8800 c2        1 CYB     -0.163000
      6 C4A         3.9580    0.4930    0.5620 c2        1 CYB     -0.030000
      7 CMA         5.6650    0.7310   -1.4160 c3        1 CYB     -0.184000
      8 CAA         2.9920    0.1990   -3.0350 c3        1 CYB     -0.110000
      9 CBA         3.7560   -0.9420   -3.6840 c3        1 CYB     -0.222000
     10 CGA         4.6130   -0.4590   -4.8680 c2        1 CYB      0.326000
     11 O1A         5.3270    0.5770   -4.7110 o         1 CYB     -0.585500
     12 O2A         4.5820   -1.1330   -5.9360 o         1 CYB     -0.585500
     13 CHB         4.9460    0.7510    1.6410 c3        1 CYB     -0.125000
     14 NB          4.9560   -1.6370    2.4970 n         1 CYB     -0.356000
     15 C1B         5.7400   -0.5110    1.9910 c3        1 CYB      0.048000
     16 C2B         6.7390   -0.1990    3.1350 c2        1 CYB     -0.129000
     17 C3B         6.4680   -1.0240    4.1830 c2        1 CYB     -0.259000
     18 C4B         5.3060   -1.8990    3.8370 c2        1 CYB      0.324000
     19 CMB         7.7880    0.7020    2.9020 c1        1 CYB     -0.048000
     20 CAB         9.3170    0.7110    4.5890 c1        1 CYB     -0.192500
     21 CBB         8.4500    1.3300    5.1530 c1        1 CYB     -0.192500
     22 OB          4.7610   -2.7460    4.5600 o         1 CYB     -0.352000
     23 NC         -0.8370    2.2930    3.8840 n         1 CYB     -0.383000
     24 C1C        -0.4840    2.7170    5.1760 c2        1 CYB      0.316000
     25 C2C        -1.5480    2.2250    6.1130 c2        1 CYB     -0.244000
     26 C3C        -2.4280    1.4670    5.4250 c2        1 CYB     -0.101000
     27 C4C        -2.0110    1.4180    3.9520 c3        1 CYB      0.012000
     28 CBC        -8.1670    1.9410    9.5770 c2        1 CYB     -0.232000
     29 ND         -0.2280   -0.0210    1.5080 na        1 CYB     -0.138000
     30 C1D        -1.4990   -0.1250    2.0570 c2        1 CYB     -0.062000
     31 C2D        -2.4260   -0.3390    1.0040 c2        1 CYB     -0.133000
     32 C3D        -1.6800   -0.3660   -0.2090 c2        1 CYB     -0.163000
     33 C4D        -0.3140   -0.1680    0.1200 c2        1 CYB     -0.091000
     34 CGD        -5.8280   -0.7760    6.4400 c2        1 CYB      0.407000
     35 O1D        -5.2530    0.3460    6.4680 o         1 CYB     -0.548000
     36 O2D        -6.8380   -1.0850    7.1210 o         1 CYB     -0.548000
     37 HHA         0.4560   -0.2170   -1.8700 ha        1 CYB      0.148000
     38 HMA1        6.0720    1.7100   -1.0540 hc        1 CYB      0.096667
     39 HMA2        6.3660   -0.0780   -1.0870 hc        1 CYB      0.096667
     40 HMA3        5.6390    0.7420   -2.5450 hc        1 CYB      0.096667
     41 HAA1        3.3810    1.1690   -3.4660 hc        1 CYB      0.094000
     42 HAA2        1.9050    0.1260   -3.3010 hc        1 CYB      0.094000
     43 HBA1        3.0440   -1.7270   -4.0390 hc        1 CYB      0.071500
     44 HBA2        4.4530   -1.4170   -2.9470 hc        1 CYB      0.071500
     45 HHB1        5.6750    1.5240    1.2720 hc        1 CYB      0.104500
     46 HHB2        4.4420    1.1570    2.5580 hc        1 CYB      0.104500
     47 HB          4.0250   -1.7510    2.1740 hn        1 CYB      0.248000
     48 H1B         6.3060   -0.8600    1.0770 h1        1 CYB      0.139000
     49 HMB1        7.7390    0.9170    0.4820 ha        1 CYB      0.004667
     50 HMB2        8.3120    0.5740    0.6100 ha        1 CYB      0.004667
     51 HMB3        7.6110    1.7780    2.8060 ha        1 CYB      0.100000
     52 HAB1       10.0840    0.1660    4.0940 ha        1 CYB      0.233500
     53 HAB2        6.9560   -1.0810    5.1520 ha        1 CYB      0.160000
     54 HBB1        5.8090    2.8570    6.6660 ha        1 CYB      0.004667
     55 HBB2        7.7050    1.8700    5.6860 ha        1 CYB      0.233500
     56 HBB3        6.3540    3.1350    6.9570 ha        1 CYB      0.004667
     57 HC         -0.1830    2.2100    3.1510 hn        1 CYB      0.231000
     58 H2C        -1.5330    2.4860    7.1680 ha        1 CYB      0.162000
     59 H4C        -0.9710   -0.5010    4.1100 hc        1 CYB      0.130000
     60 HAC1       -3.3390    0.9540    5.7700 ha        1 CYB      0.229000
     61 HAC2       -6.4930    2.6870    8.4980 ha        1 CYB      0.114250
     62 HBC1       -6.9540    0.9350    8.1130 ha        1 CYB      0.114250
     63 HBC2       -8.8490    1.1050    9.7810 ha        1 CYB      0.114250
     64 HBC3       -8.3760    2.8500   10.1540 ha        1 CYB      0.114250
     65 HD          0.6110    0.0900    2.0200 hn        1 CYB      0.267000
     66 HAD1       -2.0750   -0.5130   -1.2090 ha        1 CYB      0.145000
     67 HAD2       -4.8850    0.6120    3.5690 ha        1 CYB      0.004667
     68 HBD1       -5.0500    0.6860    4.2260 ha        1 CYB      0.004667
     69 HBD2       -5.3790   -2.8540    5.9990 ha        1 CYB      0.186000
     70 CMD        -3.8740   -0.4950    1.1450 c3        1 CYB     -0.168000
     71 CHD        -1.7890   -0.0290    3.5040 c3        1 CYB     -0.134000
     72 CAC        -7.1750    1.8490    8.7010 c2        1 CYB     -0.232000
     73 HHD1       -2.8310    1.8700    3.3190 h1        1 CYB      0.128000
     74 HHD2       -2.7460   -0.5970    3.7150 hc        1 CYB      0.130000
     75 HMD1       -4.2980   -1.0410    0.2670 hc        1 CYB      0.088333
     76 HMD2       -4.1330   -1.0590    2.0830 hc        1 CYB      0.088333
     77 HMD3       -4.3690    0.5090    1.2060 hc        1 CYB      0.088333
     78 CAD        -4.7270   -1.6570    4.3600 c1        1 CYB      0.033000
     79 OC          0.5170    3.4050    5.4410 o         1 CYB     -0.382000
     80 CBD        -5.2520   -1.8680    5.5260 c2        1 CYB     -0.519000
@<TRIPOS>BOND
     1    1    3 1   
     2    1   33 1   
     3    1   37 1   
     4    2    3 1   
     5    2    6 1   
     6    3    4 1   
     7    4    5 1   
     8    4    8 1   
     9    5    6 1   
    10    5    7 1   
    11    6   13 1   
    12    7   38 1   
    13    7   39 1   
    14    7   40 1   
    15    8    9 1   
    16    8   41 1   
    17    8   42 1   
    18    9   10 1   
    19    9   43 1   
    20    9   44 1   
    21   10   11 1   
    22   10   12 1   
    23   13   15 1   
    24   13   45 1   
    25   13   46 1   
    26   14   15 1   
    27   14   18 1   
    28   14   47 1   
    29   15   16 1   
    30   15   48 1   
    31   16   17 1   
    32   16   19 1   
    33   17   18 1   
    34   17   53 1   
    35   18   22 1   
    36   19   51 1   
    37   20   21 1   
    38   20   52 1   
    39   21   55 1   
    40   23   24 1   
    41   23   27 1   
    42   23   57 1   
    43   24   25 1   
    44   24   79 1   
    45   25   26 1   
    46   25   58 1   
    47   26   27 1   
    48   26   60 1   
    49   27   71 1   
    50   27   73 1   
    51   28   63 1   
    52   28   64 1   
    53   28   72 1   
    54   29   30 1   
    55   29   33 1   
    56   29   65 1   
    57   30   31 1   
    58   30   71 1   
    59   31   32 1   
    60   31   70 1   
    61   32   33 1   
    62   32   66 1   
    63   34   35 1   
    64   34   36 1   
    65   34   80 1   
    66   49   50 1   
    67   54   56 1   
    68   59   71 1   
    69   61   72 1   
    70   62   72 1   
    71   67   68 1   
    72   69   80 1   
    73   70   75 1   
    74   70   76 1   
    75   70   77 1   
    76   71   74 1   
    77   78   80 1   
@<TRIPOS>SUBSTRUCTURE
     1 CYB         1 TEMP              0 ****  ****    0 ROOT
