@<TRIPOS>MOLECULE
CYB
   80    83     1     0     0
SMALL
bcc


@<TRIPOS>ATOM
      1 CHA         0.2330    0.0490    1.9670 ce        1 CYB      0.054800
      2 NA         -1.3870    0.0900    0.0800 nd        1 CYB     -0.625300
      3 C1A        -1.0290    0.1320    1.4710 cd        1 CYB      0.011600
      4 C2A        -2.2780    0.3180    2.2710 cd        1 CYB     -0.023200
      5 C3A        -3.3110    0.4100    1.3630 cc        1 CYB     -0.263800
      6 C4A        -2.7020    0.2540    0.0190 cc        1 CYB      0.410600
      7 CMA        -4.7340    0.6320    1.6140 c3        1 CYB     -0.055900
      8 CAA        -2.3730    0.4170    3.7360 c3        1 CYB     -0.035200
      9 CBA        -3.2000   -0.6940    4.3600 c3        1 CYB     -0.190400
     10 CGA        -4.4180   -0.1860    5.1510 c         1 CYB      0.904600
     11 O1A        -4.9140    0.9470    4.8710 o         1 CYB     -0.853300
     12 O2A        -4.8940   -0.9490    6.0390 o         1 CYB     -0.853300
     13 CHB        -3.5100    0.2820   -1.2260 c3        1 CYB     -0.109700
     14 NB         -2.7940   -1.9440   -2.1930 n         1 CYB     -0.543900
     15 C1B        -3.8940   -1.1350   -1.6630 c3        1 CYB      0.110900
     16 C2B        -4.9170   -1.1000   -2.8050 c2        1 CYB     -0.086400
     17 C3B        -4.4110   -1.7470   -3.8840 ce        1 CYB     -0.190400
     18 C4B        -3.0240   -2.2390   -3.5420 c         1 CYB      0.682700
     19 CMB        -6.2200   -0.4580   -2.6270 c3        1 CYB     -0.054900
     20 CAB        -5.0060   -2.0050   -5.2040 c3        1 CYB     -0.021200
     21 CBB        -5.2360   -0.7380   -5.9940 c3        1 CYB     -0.088100
     22 OB         -2.2390   -2.8420   -4.2920 o         1 CYB     -0.641500
     23 NC          2.7620    1.9460   -2.8110 n         1 CYB     -0.558900
     24 C1C         2.7500    2.2330   -4.1810 c         1 CYB      0.681700
     25 C2C         3.9280    1.5280   -4.7940 ce        1 CYB     -0.245200
     26 C3C         4.5440    0.7880   -3.8440 c2        1 CYB     -0.081400
     27 C4C         3.8140    0.9730   -2.5060 c3        1 CYB      0.107900
     28 CBC         6.7720    0.1940   -2.9190 c3        1 CYB     -0.100100
     29 ND          1.5280   -0.1450   -0.1720 na        1 CYB     -0.149100
     30 C1D         2.8580   -0.2310   -0.5510 cc        1 CYB     -0.147600
     31 C2D         3.6640   -0.1830    0.6130 cd        1 CYB     -0.128300
     32 C3D         2.7820   -0.0860    1.7380 cd        1 CYB     -0.047300
     33 C4D         1.4520   -0.0650    1.2260 cc        1 CYB     -0.136100
     34 CGD         5.2880   -0.9950    4.2540 c         1 CYB      0.904600
     35 O1D         6.0050   -0.0590    3.7860 o         1 CYB     -0.854300
     36 O2D         5.6670   -1.7530    5.1920 o         1 CYB     -0.854300
     37 HHA         0.3680    0.0800    3.0660 ha        1 CYB      0.160000
     38 HMA1       -5.0760    1.5810    1.1290 hc        1 CYB      0.052700
     39 HMA2       -5.3440   -0.2090    1.1960 hc        1 CYB      0.052700
     40 HMA3       -4.9290    0.7060    2.7240 hc        1 CYB      0.052700
     41 HAA1       -1.3480    0.4270    4.1910 hc        1 CYB      0.059700
     42 HAA2       -2.8670    1.4020    3.9900 hc        1 CYB      0.059700
     43 HBA1       -3.5930   -1.3830    3.5700 hc        1 CYB      0.033700
     44 HBA2       -2.5600   -1.3000    5.0490 hc        1 CYB      0.033700
     45 HHB1       -4.4600    0.8470   -1.0220 hc        1 CYB      0.062700
     46 HHB2       -2.9620    0.8110   -2.0500 hc        1 CYB      0.062700
     47 HB         -1.8830   -1.8410   -1.8170 hn        1 CYB      0.339500
     48 H1B        -4.3370   -1.6810   -0.7770 h1        1 CYB      0.096700
     49 HMB1       -6.9710   -0.8730   -3.3450 hc        1 CYB      0.052033
     50 HMB2       -6.5940   -0.6100   -1.5820 hc        1 CYB      0.052033
     51 HMB3       -6.1320    0.6440   -2.8080 hc        1 CYB      0.052033
     52 HAB1       -4.3260   -2.6900   -5.7830 hc        1 CYB      0.053200
     53 HAB2       -5.9870   -2.5400   -5.0670 hc        1 CYB      0.053200
     54 HBB1       -5.7230   -0.9790   -6.9700 hc        1 CYB      0.032033
     55 HBB2       -5.8970   -0.0380   -5.4270 hc        1 CYB      0.032033
     56 HBB3       -4.2690   -0.2210   -6.1990 hc        1 CYB      0.032033
     57 HC          1.9700    2.0290   -2.2260 hn        1 CYB      0.336500
     58 H2C         4.1680    1.6490   -5.8480 ha        1 CYB      0.157000
     59 H4C         4.5200    1.4380   -1.7550 h1        1 CYB      0.099700
     60 HAC1        6.1830    0.0700   -4.9970 hc        1 CYB      0.049700
     61 HAC2        5.4000   -1.1480   -3.9110 hc        1 CYB      0.049700
     62 HBC1        7.6640   -0.4560   -3.0920 hc        1 CYB      0.044700
     63 HBC2        7.1000    1.2610   -2.9470 hc        1 CYB      0.044700
     64 HBC3        6.3670   -0.0230   -1.8980 hc        1 CYB      0.044700
     65 HD          0.7540   -0.2030   -0.7830 hn        1 CYB      0.311700
     66 HAD1        3.9530    0.8570    3.2290 hc        1 CYB      0.056200
     67 HAD2        2.3460    0.2390    3.8040 hc        1 CYB      0.056200
     68 HBD1        3.2640   -1.7750    4.3910 hc        1 CYB      0.032700
     69 HBD2        4.0660   -1.9760    2.7850 hc        1 CYB      0.032700
     70 CMD         5.1270   -0.2130    0.6510 c3        1 CYB     -0.056800
     71 CHD         3.3200   -0.3670   -1.9470 c3        1 CYB     -0.013100
     72 CAC         5.7290   -0.0730   -3.9780 c3        1 CYB     -0.037200
     73 HHD1        2.5230   -0.7960   -2.6090 hc        1 CYB      0.060700
     74 HHD2        4.1940   -1.0770   -1.9540 hc        1 CYB      0.060700
     75 HMD1        5.5170   -1.1250    0.1300 hc        1 CYB      0.054700
     76 HMD2        5.5520    0.6860    0.1370 hc        1 CYB      0.054700
     77 HMD3        5.4950   -0.2190    1.7180 hc        1 CYB      0.054700
     78 CAD         3.2200    0.0010    3.1420 c3        1 CYB     -0.021100
     79 OC          1.9330    2.9700   -4.7550 o         1 CYB     -0.640500
     80 CBD         3.9070   -1.2610    3.6330 c3        1 CYB     -0.191400
@<TRIPOS>BOND
     1    1    3 2   
     2    1   33 1   
     3    1   37 1   
     4    2    3 1   
     5    2    6 2   
     6    3    4 1   
     7    4    5 2   
     8    4    8 1   
     9    5    6 1   
    10    5    7 1   
    11    6   13 1   
    12    7   38 1   
    13    7   39 1   
    14    7   40 1   
    15    8    9 1   
    16    8   41 1   
    17    8   42 1   
    18    9   10 1   
    19    9   43 1   
    20    9   44 1   
    21   10   11 1   
    22   10   12 1   
    23   13   15 1   
    24   13   45 1   
    25   13   46 1   
    26   14   15 1   
    27   14   18 1   
    28   14   47 1   
    29   15   16 1   
    30   15   48 1   
    31   16   17 2   
    32   16   19 1   
    33   17   18 1   
    34   17   20 1   
    35   18   22 2   
    36   19   49 1   
    37   19   50 1   
    38   19   51 1   
    39   20   21 1   
    40   20   52 1   
    41   20   53 1   
    42   21   54 1   
    43   21   55 1   
    44   21   56 1   
    45   23   24 1   
    46   23   27 1   
    47   23   57 1   
    48   24   25 1   
    49   24   79 2   
    50   25   26 2   
    51   25   58 1   
    52   26   27 1   
    53   26   72 1   
    54   27   59 1   
    55   27   71 1   
    56   28   62 1   
    57   28   63 1   
    58   28   64 1   
    59   28   72 1   
    60   29   30 1   
    61   29   33 1   
    62   29   65 1   
    63   30   31 2   
    64   30   71 1   
    65   31   32 1   
    66   31   70 1   
    67   32   33 2   
    68   32   78 1   
    69   34   35 1   
    70   34   36 1   
    71   34   80 1   
    72   60   72 1   
    73   61   72 1   
    74   66   78 1   
    75   67   78 1   
    76   68   80 1   
    77   69   80 1   
    78   70   75 1   
    79   70   76 1   
    80   70   77 1   
    81   71   73 1   
    82   71   74 1   
    83   78   80 1   
@<TRIPOS>SUBSTRUCTURE
     1 CYB         1 TEMP              0 ****  ****    0 ROOT
