@<TRIPOS>MOLECULE
CYC
   81    78     1     0     0
SMALL
bcc


@<TRIPOS>ATOM
      1 CHA        -0.1730    0.0030   -0.1540 c2        1 CYC     -0.082000
      2 NA          1.9790   -0.3000    1.0210 n2        1 CYC     -0.200000
      3 C1A         1.2430   -0.2820   -0.1070 c2        1 CYC     -0.066000
      4 C2A         2.0720   -0.6240   -1.2850 c2        1 CYC     -0.125000
      5 C3A         3.3470   -0.8420   -0.7980 c2        1 CYC     -0.150000
      6 C4A         3.2960   -0.6420    0.6590 c2        1 CYC     -0.167000
      7 CMA         4.2160   -1.7160   -5.8750 c2        1 CYC     -0.645000
      8 CAA         1.5660   -0.6950   -2.6620 c3        1 CYC     -0.094000
      9 CBA         2.6260   -1.0480   -3.6820 c3        1 CYC     -0.200000
     10 CGA         2.0820   -1.0970   -5.0870 c2        1 CYC      0.204000
     11 O1A         2.9080   -1.4290   -6.1240 os        1 CYC     -0.112000
     12 O2A         0.8980   -0.8470   -5.3890 o         1 CYC     -0.459000
     13 CHB         4.3620   -0.7570    1.5300 c2        1 CYC      0.050000
     14 NB          3.2170   -0.3540    3.7210 n         1 CYC     -0.231000
     15 C1B         4.3490   -0.5920    2.9210 c2        1 CYC     -0.133000
     16 C2B         5.5090   -0.6090    3.8060 c2        1 CYC     -0.132000
     17 C3B         5.0420   -0.3730    5.1140 c2        1 CYC     -0.226000
     18 C4B         3.5940   -0.2180    5.0650 c2        1 CYC      0.260000
     19 CMB         6.8540   -0.8230    3.4740 c1        1 CYC     -0.106000
     20 CAB         4.2300   -0.5620   10.0960 c1        1 CYC     -0.237000
     21 CBB         3.9180   -0.4410    8.9470 c1        1 CYC     -0.237000
     22 OB          2.7620    0.0180    5.9950 o         1 CYC     -0.548000
     23 NC          0.5930    3.1590    4.1290 n         1 CYC     -0.351000
     24 C1C         1.3650    3.9920    4.9670 c2        1 CYC      0.233000
     25 C2C         1.1810    3.5390    6.4100 c1        1 CYC      0.038000
     26 C3C         0.4470    2.2400    6.3150 c3        1 CYC     -0.268000
     27 C4C        -0.0690    2.1710    4.8730 c2        1 CYC      0.087000
     28 CAC        -0.5620    1.9610    7.3220 c1        1 CYC     -0.003000
     29 CBC        -0.3290    2.3220    8.7060 c3        1 CYC     -0.281000
     30 ND         -0.3620    0.8170    2.1600 n3        1 CYC     -0.206000
     31 C1D        -1.3520    1.0760    3.0600 c2        1 CYC      0.205000
     32 C2D        -2.6440    1.0300    2.4450 c2        1 CYC     -0.290000
     33 C3D        -2.4120    0.6700    0.9730 c3        1 CYC      0.016000
     34 C4D        -0.8990    0.4670    0.8880 c2        1 CYC     -0.050000
     35 CGD        -5.7070   -0.1320   -0.1840 cu        1 CYC      0.374000
     36 O1D        -5.3950   -1.4960   -0.2090 os        1 CYC     -0.266000
     37 O2D        -6.7180    0.4630   -0.4620 o         1 CYC     -0.248000
     38 HHA        -0.6680   -0.1960   -1.1200 ha        1 CYC      0.159000
     39 HMA1        4.2380   -1.1140   -1.3560 ha        1 CYC      0.148000
     40 HMA2        4.8410   -0.8680   -5.5790 h4        1 CYC      0.021000
     41 HMA3        4.4060   -2.6660   -5.3660 h4        1 CYC      0.021000
     42 HAA1        1.1050    0.2930   -2.9440 hc        1 CYC      0.088500
     43 HAA2        0.7380   -1.4550   -2.7190 hc        1 CYC      0.088500
     44 HBA1        3.0790   -2.0480   -3.4520 hc        1 CYC      0.098500
     45 HBA2        3.4590   -0.2980   -3.6620 hc        1 CYC      0.098500
     46 HHB         5.3450   -0.9950    1.0830 ha        1 CYC      0.131000
     47 HB          2.2880   -0.4040    3.3960 hn        1 CYC      0.246000
     48 HMB1        7.7510    1.3840    3.1930 ha        1 CYC      0.001700
     49 HMB2        7.5220    1.3740    3.8330 ha        1 CYC      0.001700
     50 HMB3        7.0880   -0.8840    2.3970 ha        1 CYC      0.022000
     51 HAB1        5.6300   -0.3190    6.0240 ha        1 CYC      0.151000
     52 HAB2        4.5080   -0.6700   11.1110 ha        1 CYC      0.233000
     53 HBB1        3.6380   -0.3340    7.9160 ha        1 CYC      0.233000
     54 HBB2        6.1100    1.9620    5.5640 ha        1 CYC      0.001700
     55 HBB3        6.2500    2.5680    5.8340 ha        1 CYC      0.001700
     56 HC          0.5010    3.2650    3.1500 hn        1 CYC      0.259000
     57 H2C         3.7580    1.9750    6.5120 hc        1 CYC      0.093750
     58 H3C         1.2110    1.3690    6.4190 hc        1 CYC      0.279000
     59 HAC1        0.8920   -0.1970    7.9540 ha        1 CYC      0.001700
     60 HAC2        1.3790   -0.6290    7.7610 ha        1 CYC      0.001700
     61 HBC1       -0.2250    1.3610    9.2810 hc        1 CYC      0.111333
     62 HBC2       -1.2430    2.8470    9.0890 hc        1 CYC      0.111333
     63 HBC3        0.5690    2.9610    8.9040 hc        1 CYC      0.111333
     64 HD          0.6060    0.7200    2.3770 hn        1 CYC      0.282000
     65 HAD1       -2.7190    1.5350    0.3240 hc        1 CYC      0.123000
     66 HAD2       -2.6180   -1.5190    0.6650 ha        1 CYC      0.157000
     67 HBD1       -4.4650    2.7860   -0.9150 ha        1 CYC      0.001700
     68 HBD2       -4.7950    2.2180   -0.7510 ha        1 CYC      0.001700
     69 CMD        -3.8690    1.2800    2.9670 c1        1 CYC     -0.239000
     70 CHD        -1.0220    1.3130    4.4520 c2        1 CYC     -0.237000
     71 CMC         3.7160    3.0760    6.6740 c3        1 CYC     -0.292000
     72 HMC1        3.9460    3.6180    5.7320 hc        1 CYC      0.093750
     73 HMC2        4.4290    3.3780    7.4710 hc        1 CYC      0.093750
     74 HMC3        2.6710    3.3690    7.0370 hc        1 CYC      0.093750
     75 HHD        -1.5720    0.7100    5.1960 ha        1 CYC      0.197000
     76 HMD1       -3.0040    1.7420    6.6040 ha        1 CYC      0.001700
     77 HMD2       -3.6620    1.7060    6.4420 ha        1 CYC      0.001700
     78 HMD3       -3.9630    1.5330    4.0310 ha        1 CYC      0.044000
     79 CAD        -3.1550   -0.5570    0.5870 c2        1 CYC     -0.037000
     80 OC          2.0180    4.9520    4.5440 o         1 CYC     -0.294000
     81 CBD        -4.4070   -0.5300    0.1830 cu        1 CYC     -0.061000
@<TRIPOS>BOND
     1    1    3 1   
     2    1   34 1   
     3    1   38 1   
     4    2    3 1   
     5    2    6 1   
     6    3    4 1   
     7    4    5 1   
     8    4    8 1   
     9    5    6 1   
    10    5   39 1   
    11    6   13 1   
    12    7   11 1   
    13    7   40 1   
    14    7   41 1   
    15    8    9 1   
    16    8   42 1   
    17    8   43 1   
    18    9   10 1   
    19    9   44 1   
    20    9   45 1   
    21   10   11 1   
    22   10   12 1   
    23   13   15 1   
    24   13   46 1   
    25   14   15 1   
    26   14   18 1   
    27   14   47 1   
    28   15   16 1   
    29   16   17 1   
    30   16   19 1   
    31   17   18 1   
    32   17   51 1   
    33   18   22 1   
    34   19   50 1   
    35   20   21 1   
    36   20   52 1   
    37   21   53 1   
    38   23   24 1   
    39   23   27 1   
    40   23   56 1   
    41   24   25 1   
    42   24   80 1   
    43   25   26 1   
    44   26   27 1   
    45   26   28 1   
    46   26   58 1   
    47   27   70 1   
    48   28   29 1   
    49   29   61 1   
    50   29   62 1   
    51   29   63 1   
    52   30   31 1   
    53   30   34 1   
    54   30   64 1   
    55   31   32 1   
    56   31   70 1   
    57   32   33 1   
    58   32   69 1   
    59   33   34 1   
    60   33   65 1   
    61   33   79 1   
    62   35   36 1   
    63   35   37 1   
    64   35   81 1   
    65   36   81 1   
    66   48   49 1   
    67   54   55 1   
    68   57   71 1   
    69   59   60 1   
    70   66   79 1   
    71   67   68 1   
    72   69   78 1   
    73   70   75 1   
    74   71   72 1   
    75   71   73 1   
    76   71   74 1   
    77   76   77 1   
    78   79   81 1   
@<TRIPOS>SUBSTRUCTURE
     1 CYC         1 TEMP              0 ****  ****    0 ROOT
