@<TRIPOS>MOLECULE
CYC
   81    84     1     0     0
SMALL
bcc


@<TRIPOS>ATOM
      1 CHA         0.2070   -0.3700   -2.3930 ce        1 CYC      0.059800
      2 NA         -1.4810    0.0050   -0.6110 nd        1 CYC     -0.622300
      3 C1A        -1.0790   -0.2630   -1.9560 cd        1 CYC      0.013600
      4 C2A        -2.3050   -0.4220   -2.7940 cd        1 CYC     -0.030200
      5 C3A        -3.3800   -0.2710   -1.9440 cc        1 CYC     -0.250800
      6 C4A        -2.8150    0.0060   -0.5970 cc        1 CYC      0.450900
      7 CMA        -4.8070   -0.3680   -2.2510 c3        1 CYC     -0.058900
      8 CAA        -2.3500   -0.7290   -4.2320 c3        1 CYC     -0.032200
      9 CBA        -3.0800    0.3230   -5.0500 c3        1 CYC     -0.191400
     10 CGA        -4.2650   -0.2430   -5.8520 c         1 CYC      0.904600
     11 O1A        -4.8790   -1.2640   -5.4150 o         1 CYC     -0.853800
     12 O2A        -4.5990    0.3660   -6.9090 o         1 CYC     -0.853800
     13 CHB        -3.6660    0.2340    0.5440 ce        1 CYC     -0.175600
     14 NB         -1.9990    1.0220    2.2210 n         1 CYC     -0.475100
     15 C1B        -3.2910    0.6690    1.7680 cd        1 CYC      0.024600
     16 C2B        -4.2210    0.8690    2.9250 cd        1 CYC     -0.037200
     17 C3B        -3.4960    1.3040    3.9940 cc        1 CYC     -0.192400
     18 C4B        -2.0520    1.4120    3.5670 c         1 CYC      0.698700
     19 CMB        -5.6580    0.6040    2.8140 c3        1 CYC     -0.053900
     20 CAB        -3.9180    1.6510    5.3590 c3        1 CYC     -0.010200
     21 CBB        -3.3070    0.7330    6.3930 c3        1 CYC     -0.093100
     22 OB         -1.0750    1.7760    4.2410 o         1 CYC     -0.647500
     23 NC          1.4900   -1.4510    2.6880 n         1 CYC     -0.476100
     24 C1C         1.1630   -1.8500    3.9820 c         1 CYC      0.700500
     25 C2C         2.0290   -1.0800    4.9870 c3        1 CYC     -0.136700
     26 C3C         2.9970   -0.2510    4.1110 c3        1 CYC     -0.030500
     27 C4C         2.5700   -0.5460    2.6770 c2        1 CYC     -0.006600
     28 CAC         4.4510   -0.6110    4.3500 c3        1 CYC     -0.076400
     29 CBC         4.9450   -0.0930    5.6770 c3        1 CYC     -0.093100
     30 ND          1.4190   -0.2010   -0.2060 na        1 CYC     -0.156100
     31 C1D         2.7370   -0.1400    0.2250 cc        1 CYC     -0.095100
     32 C2D         3.5880   -0.2420   -0.9070 cd        1 CYC     -0.117300
     33 C3D         2.7490   -0.3460   -2.0620 cd        1 CYC     -0.044300
     34 C4D         1.3970   -0.3000   -1.6060 cc        1 CYC     -0.138100
     35 CGD         5.4100    0.3180   -4.4970 c         1 CYC      0.904600
     36 O1D         6.0290   -0.6690   -3.9960 o         1 CYC     -0.853800
     37 O2D         5.8870    1.0390   -5.4190 o         1 CYC     -0.853800
     38 HHA         0.3800   -0.5330   -3.4750 ha        1 CYC      0.160000
     39 HMA1       -5.3020   -1.1240   -1.5900 hc        1 CYC      0.054033
     40 HMA2       -5.3120    0.6180   -2.0920 hc        1 CYC      0.054033
     41 HMA3       -4.9540   -0.6780   -3.3260 hc        1 CYC      0.054033
     42 HAA1       -1.3110   -0.8650   -4.6330 hc        1 CYC      0.059200
     43 HAA2       -2.8950   -1.7110   -4.3620 hc        1 CYC      0.059200
     44 HBA1       -3.4940    1.1220   -4.3830 hc        1 CYC      0.033700
     45 HBA2       -2.3690    0.8100   -5.7630 hc        1 CYC      0.033700
     46 HHB        -4.7370    0.0280    0.3650 ha        1 CYC      0.147000
     47 HB         -1.1850    0.9820    1.6630 hn        1 CYC      0.361500
     48 HMB1       -6.1080    1.2430    2.0120 hc        1 CYC      0.051700
     49 HMB2       -5.8320   -0.4690    2.5420 hc        1 CYC      0.051700
     50 HMB3       -6.1860    0.8160    3.7770 hc        1 CYC      0.051700
     51 HAB1       -3.6000    2.7090    5.5730 hc        1 CYC      0.042700
     52 HAB2       -5.0380    1.6140    5.4360 hc        1 CYC      0.042700
     53 HBB1       -3.5950    1.0680    7.4180 hc        1 CYC      0.038700
     54 HBB2       -3.6590   -0.3160    6.2490 hc        1 CYC      0.038700
     55 HBB3       -2.1920    0.7480    6.3070 hc        1 CYC      0.038700
     56 HC          1.1490   -1.8920    1.8700 hn        1 CYC      0.347500
     57 H2C         2.5950   -1.8320    5.5990 hc        1 CYC      0.071700
     58 H3C         2.8480    0.8450    4.3080 hc        1 CYC      0.077700
     59 HAC1        5.0750   -0.1770    3.5230 hc        1 CYC      0.051200
     60 HAC2        4.5760   -1.7250    4.3060 hc        1 CYC      0.051200
     61 HBC1        5.9980   -0.4200    5.8510 hc        1 CYC      0.030033
     62 HBC2        4.9130    1.0230    5.7010 hc        1 CYC      0.030033
     63 HBC3        4.3110   -0.4780    6.5130 hc        1 CYC      0.030033
     64 HD          0.6270   -0.0340    0.3610 hn        1 CYC      0.309700
     65 HAD1        3.9130   -1.4060   -3.4750 hc        1 CYC      0.057700
     66 HAD2        2.3770   -0.7000   -4.1360 hc        1 CYC      0.057700
     67 HBD1        3.4520    1.2340   -4.7310 hc        1 CYC      0.033200
     68 HBD2        4.2070    1.4190   -3.1000 hc        1 CYC      0.033200
     69 CMD         5.0510   -0.2580   -0.8840 c3        1 CYC     -0.055800
     70 CHD         3.1400    0.0270    1.5980 ce        1 CYC     -0.128200
     71 CMC         1.1740   -0.2230    5.8850 c3        1 CYC     -0.095100
     72 HMC1        0.4450   -0.8630    6.4390 hc        1 CYC      0.051033
     73 HMC2        1.8190    0.3140    6.6220 hc        1 CYC      0.051033
     74 HMC3        0.6000    0.5340    5.2930 hc        1 CYC      0.051033
     75 HHD         4.0200    0.6800    1.7360 ha        1 CYC      0.147000
     76 HMD1        5.4460    0.7070   -0.4750 hc        1 CYC      0.056367
     77 HMD2        5.4250   -1.0880   -0.2340 hc        1 CYC      0.056367
     78 HMD3        5.4620   -0.4020   -1.9250 hc        1 CYC      0.056367
     79 CAD         3.2370   -0.5020   -3.4430 c3        1 CYC     -0.023100
     80 OC          0.3060   -2.7030    4.2560 o         1 CYC     -0.631500
     81 CBD         4.0280    0.6970   -3.9360 c3        1 CYC     -0.191400
@<TRIPOS>BOND
     1    1    3 2   
     2    1   34 1   
     3    1   38 1   
     4    2    3 1   
     5    2    6 2   
     6    3    4 1   
     7    4    5 2   
     8    4    8 1   
     9    5    6 1   
    10    5    7 1   
    11    6   13 1   
    12    7   39 1   
    13    7   40 1   
    14    7   41 1   
    15    8    9 1   
    16    8   42 1   
    17    8   43 1   
    18    9   10 1   
    19    9   44 1   
    20    9   45 1   
    21   10   11 1   
    22   10   12 1   
    23   13   15 2   
    24   13   46 1   
    25   14   15 1   
    26   14   18 1   
    27   14   47 1   
    28   15   16 1   
    29   16   17 2   
    30   16   19 1   
    31   17   18 1   
    32   17   20 1   
    33   18   22 2   
    34   19   48 1   
    35   19   49 1   
    36   19   50 1   
    37   20   21 1   
    38   20   51 1   
    39   20   52 1   
    40   21   53 1   
    41   21   54 1   
    42   21   55 1   
    43   23   24 1   
    44   23   27 1   
    45   23   56 1   
    46   24   25 1   
    47   24   80 2   
    48   25   26 1   
    49   25   57 1   
    50   25   71 1   
    51   26   27 1   
    52   26   28 1   
    53   26   58 1   
    54   27   70 2   
    55   28   29 1   
    56   28   59 1   
    57   28   60 1   
    58   29   61 1   
    59   29   62 1   
    60   29   63 1   
    61   30   31 1   
    62   30   34 1   
    63   30   64 1   
    64   31   32 2   
    65   31   70 1   
    66   32   33 1   
    67   32   69 1   
    68   33   34 2   
    69   33   79 1   
    70   35   36 1   
    71   35   37 1   
    72   35   81 1   
    73   65   79 1   
    74   66   79 1   
    75   67   81 1   
    76   68   81 1   
    77   69   76 1   
    78   69   77 1   
    79   69   78 1   
    80   70   75 1   
    81   71   72 1   
    82   71   73 1   
    83   71   74 1   
    84   79   81 1   
@<TRIPOS>SUBSTRUCTURE
     1 CYC         1 TEMP              0 ****  ****    0 ROOT
