@<TRIPOS>MOLECULE
CYC
   81    76     1     0     0
SMALL
bcc


@<TRIPOS>ATOM
      1 CHA         0.5960    0.4590   -0.0940 c2        1 CYC     -0.050000
      2 NA          2.6850    0.1130    1.1990 n2        1 CYC     -0.191000
      3 C1A         1.9320    0.2700   -0.0160 c2        1 CYC     -0.043000
      4 C2A         2.8780    0.1510   -1.1780 c2        1 CYC     -0.038000
      5 C3A         4.1220   -0.0790   -0.6440 c2        1 CYC     -0.140000
      6 C4A         3.9470   -0.1040    0.8430 c2        1 CYC      0.034000
      7 CMA         5.3960   -0.2620   -1.3360 c3        1 CYC     -0.192000
      8 CAA         2.5190    0.2820   -2.5980 c3        1 CYC     -0.118000
      9 CBA         2.7060   -1.0050   -3.3820 c3        1 CYC     -0.223000
     10 CGA         3.6980   -0.8610   -4.5510 c2        1 CYC      0.326000
     11 O1A         4.6110    0.0160   -4.4780 o         1 CYC     -0.582500
     12 O2A         3.5670   -1.6540   -5.5250 o         1 CYC     -0.582500
     13 CHB         5.0570   -0.3850    1.7220 c2        1 CYC     -0.114000
     14 NB          3.9360   -0.1060    3.9240 n         1 CYC     -0.282000
     15 C1B         5.0280   -0.3980    3.0720 c2        1 CYC      0.034000
     16 C2B         6.1710   -0.8490    3.9460 c2        1 CYC     -0.132000
     17 C3B         5.7410   -0.8080    5.2480 c2        1 CYC     -0.134000
     18 C4B         4.3210   -0.3170    5.2640 c2        1 CYC      0.321000
     19 CMB         7.4530   -1.2200    3.5100 c1        1 CYC     -0.022000
     20 CAB         4.7670   -0.3330   10.5720 c1        1 CYC     -0.229000
     21 CBB         4.3800   -0.1720    9.4520 c1        1 CYC     -0.229000
     22 OB          3.5820   -0.1560    6.2490 o         1 CYC     -0.365000
     23 NC          0.9900    1.2720    5.1940 n         1 CYC     -0.403000
     24 C1C         1.4790    2.4630    4.7250 c2        1 CYC      0.266000
     25 C2C         0.5490    3.6430    4.5110 c3        1 CYC     -0.268000
     26 C3C        -0.5590   -0.1600    6.5060 c3        1 CYC     -0.064000
     27 C4C        -0.4070    1.0390    5.5400 c3        1 CYC      0.048000
     28 CAC         0.2310    0.0130    7.7490 c2        1 CYC     -0.482000
     29 CBC        -0.2270    0.0760    8.9740 c1        1 CYC      0.150000
     30 ND         -0.0170    0.6940    2.3360 na        1 CYC     -0.161000
     31 C1D        -1.2250    0.7370    3.1130 c2        1 CYC     -0.143000
     32 C2D        -2.3210    0.6490    2.1560 c2        1 CYC      0.103000
     33 C3D        -1.7580    0.5560    0.8700 c2        1 CYC     -0.262000
     34 C4D        -0.3290    0.5640    1.0110 c2        1 CYC      0.063000
     35 CGD        -7.6390    0.9310    1.3130 c2        1 CYC      0.411000
     36 O1D        -8.1520    2.0800    1.4290 o         1 CYC     -0.560500
     37 O2D        -6.3940    0.7110    1.3480 o         1 CYC     -0.560500
     38 HHA         0.1210    0.5320   -1.0900 ha        1 CYC      0.164000
     39 HMA1        5.8160   -1.2770   -1.1230 hc        1 CYC      0.102333
     40 HMA2        6.1390    0.5030   -0.9990 hc        1 CYC      0.102333
     41 HMA3        5.2510   -0.1630   -2.4530 hc        1 CYC      0.102333
     42 HAA1        3.1890    1.0690   -3.0580 hc        1 CYC      0.101500
     43 HAA2        1.4600    0.6390   -2.6970 hc        1 CYC      0.101500
     44 HBA1        1.7220   -1.3470   -3.7910 hc        1 CYC      0.073500
     45 HBA2        3.0990   -1.8190   -2.7210 hc        1 CYC      0.073500
     46 HHB         6.0000   -0.6380    1.2030 ha        1 CYC      0.150000
     47 HB          3.2440    0.5680    3.6710 hn        1 CYC      0.285000
     48 HMB1        8.2660    0.5870    2.4610 ha        1 CYC      0.002900
     49 HMB2        7.7850    0.4460    1.9980 ha        1 CYC      0.002900
     50 HMB3        7.5560   -1.8750    2.6350 ha        1 CYC      0.082000
     51 HAB1        6.2720   -1.0830    6.1570 ha        1 CYC      0.175000
     52 HAB2        5.1050   -0.4760   11.5660 ha        1 CYC      0.227000
     53 HBB1        4.0350   -0.0270    8.4520 ha        1 CYC      0.227000
     54 HBB2       10.2900    2.5720    2.6050 ha        1 CYC      0.002900
     55 HBB3        9.7560    2.1810    2.4630 ha        1 CYC      0.002900
     56 HC          1.6520    0.5600    5.4230 hn        1 CYC      0.235000
     57 H2C         2.1340    4.7380    3.4930 ha        1 CYC      0.066000
     58 H3C        -1.6530   -0.2600    6.7350 hc        1 CYC      0.109500
     59 HAC1       -0.2290   -1.1030    5.9940 hc        1 CYC      0.109500
     60 HAC2       -0.3260    3.3270    3.8570 hc        1 CYC      0.175500
     61 HBC1       -1.1890    3.9710    7.4020 ha        1 CYC      0.002900
     62 HBC2        1.3360    0.0790    7.6040 ha        1 CYC      0.207000
     63 HBC3       -1.7220    3.9180    6.9880 ha        1 CYC      0.002900
     64 HD          0.8980    0.6520    2.7120 hn        1 CYC      0.262000
     65 HAD1       -2.2920    0.4850   -0.0740 ha        1 CYC      0.172000
     66 HAD2       -9.9220   -1.9790    0.8480 ha        1 CYC      0.181000
     67 HBD1       -5.5280    3.4970    1.6430 ha        1 CYC      0.002900
     68 HBD2       -5.9910    3.0010    1.5760 ha        1 CYC      0.002900
     69 CMD        -3.7370    0.6730    2.5050 c3        1 CYC     -0.211000
     70 CHD        -1.3680    0.8370    4.4550 c1        1 CYC     -0.222000
     71 CMC         1.1120    4.8200    3.8940 c1        1 CYC     -0.049000
     72 HMC1        2.9980    1.8130    7.6620 ha        1 CYC      0.002900
     73 HMC2        0.0960    3.9450    5.5020 hc        1 CYC      0.175500
     74 HMC3        3.0490    2.0350    7.0230 ha        1 CYC      0.002900
     75 HHD        -0.7780    1.9670    6.0900 h1        1 CYC      0.112000
     76 HMD1       -3.8750    0.6770    3.6140 hc        1 CYC      0.131667
     77 HMD2       -4.2530    1.5760    2.0720 hc        1 CYC      0.131667
     78 HMD3       -4.2770   -0.2090    2.0680 hc        1 CYC      0.131667
     79 CAD        -9.2770   -1.1530    0.9810 c1        1 CYC     -0.354000
     80 OC          2.7050    2.5500    4.4590 o         1 CYC     -0.435000
     81 CBD        -8.5420   -0.2190    1.1300 c1        1 CYC     -0.112000
@<TRIPOS>BOND
     1    1    3 1   
     2    1   34 1   
     3    1   38 1   
     4    2    3 1   
     5    2    6 1   
     6    3    4 1   
     7    4    5 1   
     8    4    8 1   
     9    5    6 1   
    10    5    7 1   
    11    6   13 1   
    12    7   39 1   
    13    7   40 1   
    14    7   41 1   
    15    8    9 1   
    16    8   42 1   
    17    8   43 1   
    18    9   10 1   
    19    9   44 1   
    20    9   45 1   
    21   10   11 1   
    22   10   12 1   
    23   13   15 1   
    24   13   46 1   
    25   14   15 1   
    26   14   18 1   
    27   14   47 1   
    28   15   16 1   
    29   16   17 1   
    30   16   19 1   
    31   17   18 1   
    32   17   51 1   
    33   18   22 1   
    34   19   50 1   
    35   20   21 1   
    36   20   52 1   
    37   21   53 1   
    38   23   24 1   
    39   23   27 1   
    40   23   56 1   
    41   24   25 1   
    42   24   80 1   
    43   25   60 1   
    44   25   71 1   
    45   25   73 1   
    46   26   27 1   
    47   26   28 1   
    48   26   58 1   
    49   26   59 1   
    50   27   70 1   
    51   27   75 1   
    52   28   29 1   
    53   28   62 1   
    54   30   31 1   
    55   30   34 1   
    56   30   64 1   
    57   31   32 1   
    58   31   70 1   
    59   32   33 1   
    60   32   69 1   
    61   33   34 1   
    62   33   65 1   
    63   35   36 1   
    64   35   37 1   
    65   35   81 1   
    66   48   49 1   
    67   54   55 1   
    68   57   71 1   
    69   61   63 1   
    70   66   79 1   
    71   67   68 1   
    72   69   76 1   
    73   69   77 1   
    74   69   78 1   
    75   72   74 1   
    76   79   81 1   
@<TRIPOS>SUBSTRUCTURE
     1 CYC         1 TEMP              0 ****  ****    0 ROOT
