@<TRIPOS>MOLECULE
CYC
   81    76     1     0     0
SMALL
bcc


@<TRIPOS>ATOM
      1 CHA        -0.3960    1.4650   -2.1080 c1        1 CYC      0.050000
      2 NA          1.0600   -0.5700   -1.3400 n1        1 CYC     -0.172000
      3 C1A         0.5980    0.5220   -2.2870 c1        1 CYC     -0.135000
      4 C2A         1.5380    0.3020   -3.5160 c2        1 CYC     -0.021000
      5 C3A         2.4130   -0.7930   -3.2550 c1        1 CYC     -0.170000
      6 C4A         2.1310   -1.3230   -1.9470 c1        1 CYC     -0.022000
      7 CMA         3.8390   -0.7570   -3.7640 c3        1 CYC     -0.179000
      8 CAA         2.0400    1.5110   -4.3210 c3        1 CYC     -0.118000
      9 CBA         1.5600    1.3920   -5.7710 c3        1 CYC     -0.219000
     10 CGA         2.1130    2.5530   -6.5860 c2        1 CYC      0.324000
     11 O1A         3.3050    2.5270   -6.9880 o         1 CYC     -0.587500
     12 O2A         1.3540    3.5040   -6.9230 o         1 CYC     -0.587500
     13 CHB         2.2570   -2.8640   -1.6790 c2        1 CYC     -0.077000
     14 NB          4.2560   -2.4460   -0.0570 n3        1 CYC     -0.319000
     15 C1B         3.2060   -3.3250   -0.8400 c2        1 CYC      0.013000
     16 C2B         3.8310   -4.6420   -0.8900 c2        1 CYC     -0.032000
     17 C3B         5.0310   -4.6870   -0.2940 c1        1 CYC     -0.167000
     18 C4B         5.4420   -3.4320    0.2680 c1        1 CYC      0.334000
     19 CMB         2.9620   -5.8990   -0.9470 c3        1 CYC     -0.175000
     20 CAB         5.5410   -5.9970    0.3080 c3        1 CYC     -0.102000
     21 CBB         6.5310   -6.6610   -0.6670 c3        1 CYC     -0.206000
     22 OB          6.4580   -3.1890    0.8540 o         1 CYC     -0.352000
     23 NC         -2.8660    3.9290    3.0620 n         1 CYC     -0.311000
     24 C1C        -3.4170    4.5020    3.9770 c2        1 CYC      0.305000
     25 C2C        -2.8090    3.8030    5.4570 c3        1 CYC     -0.133000
     26 C3C        -2.7470    2.5240    5.1950 c3        1 CYC     -0.075000
     27 C4C        -2.5680    2.4990    3.5830 c2        1 CYC      0.010000
     28 CMC        -1.4650    4.4070    5.9230 c3        1 CYC     -0.200000
     29 CAC        -4.0260    1.6840    5.7280 c3        1 CYC     -0.156000
     30 CBC        -3.7260    1.1170    7.1160 c3        1 CYC     -0.211000
     31 OC         -4.0720    5.5290    3.8860 o         1 CYC     -0.357000
     32 CHD        -2.2120    1.3970    2.8100 c1        1 CYC     -0.144000
     33 ND         -0.9030    1.5380    0.5590 n2        1 CYC     -0.145000
     34 C1D        -2.0820    1.5370    1.2690 c1        1 CYC     -0.078000
     35 C2D        -3.1390    1.4920    0.3530 c1        1 CYC     -0.085000
     36 C3D        -2.6070    1.4660   -0.9030 c1        1 CYC     -0.085000
     37 C4D        -1.2130    1.4940   -0.7820 c1        1 CYC     -0.078000
     38 CMD        -4.6320    1.4460    0.7000 c2        1 CYC     -0.185000
     39 CAD        -3.3890    1.5910   -2.1970 c2        1 CYC     -0.106000
     40 CBD        -4.0780    0.2320   -2.5210 c3        1 CYC     -0.220000
     41 CGD        -4.9120    0.3730   -3.7810 c2        1 CYC      0.324000
     42 O1D        -6.0640    0.8940   -3.7230 o         1 CYC     -0.589000
     43 O2D        -4.5000   -0.1160   -4.8590 o         1 CYC     -0.589000
     44 HHA        -0.5890    2.1230   -2.8230 ha        1 CYC      0.160000
     45 HMA1        4.3220   -1.5240   -3.4250 hc        1 CYC      0.094000
     46 HMA2        4.2750    0.0660   -3.4560 hc        1 CYC      0.094000
     47 HMA3        3.8370   -0.7780   -4.7460 hc        1 CYC      0.094000
     48 HAA1        1.6890    2.3310   -3.9280 hc        1 CYC      0.100000
     49 HAA2        3.0190    1.5330   -4.3020 hc        1 CYC      0.100000
     50 HBA1        1.8750    0.5480   -6.1510 hc        1 CYC      0.073000
     51 HBA2        0.5790    1.4140   -5.7920 hc        1 CYC      0.073000
     52 HHB         1.5880   -3.4780   -2.0440 ha        1 CYC      0.142000
     53 HB          4.1930   -1.5690    0.1570 hn        1 CYC      0.269000
     54 HMB1        2.3860   -5.9350   -0.1530 hc        1 CYC      0.090333
     55 HMB2        3.5360   -6.6900   -0.9700 hc        1 CYC      0.090333
     56 HMB3        2.4050   -5.8750   -1.7540 hc        1 CYC      0.090333
     57 HAB1        5.9940   -5.8110    1.1600 hc        1 CYC      0.091500
     58 HAB2        4.7840   -6.5980    0.4640 hc        1 CYC      0.091500
     59 HBB1        6.5390   -7.6350   -0.5130 hc        1 CYC      0.072333
     60 HBB2        7.4320   -6.3000   -0.5170 hc        1 CYC      0.072333
     61 HBB3        6.2530   -6.4770   -1.5940 hc        1 CYC      0.072333
     62 HC         -2.9170    4.1410    2.1530 hn        1 CYC      0.276000
     63 H2C        -3.3980    3.9970    6.2300 hc        1 CYC      0.118000
     64 H3C        -1.9900    2.0740    5.6690 hc        1 CYC      0.106000
     65 HMC1       -1.4290    4.4070    6.9150 hc        1 CYC      0.081000
     66 HMC2       -1.3870    5.3290    5.5920 hc        1 CYC      0.081000
     67 HMC3       -0.7400    3.8800    5.5760 hc        1 CYC      0.081000
     68 HAC1       -4.8000    2.2690    5.7770 hc        1 CYC      0.094500
     69 HAC2       -4.2140    0.9420    5.1050 hc        1 CYC      0.094500
     70 HBC1       -4.3430    0.3650    7.3050 hc        1 CYC      0.069333
     71 HBC2       -2.8090    0.7990    7.1440 hc        1 CYC      0.069333
     72 HBC3       -3.8500    1.8140    7.7860 hc        1 CYC      0.069333
     73 HHD        -2.0440    0.5330    3.2380 ha        1 CYC      0.131000
     74 HD         -0.0690    1.6350    0.9100 DU        1 CYC      0.266000
     75 HMD1       -4.7780    1.8670    1.5810 ha        1 CYC      0.097667
     76 HMD2       -4.9320    0.5070    0.7290 ha        1 CYC      0.097667
     77 HMD3       -5.1400    1.9290    0.0210 ha        1 CYC      0.097667
     78 HAD1       -2.7870    1.8270   -2.9160 ha        1 CYC      0.094000
     79 HAD2       -4.0770    2.2950   -2.1000 ha        1 CYC      0.094000
     80 HBD1       -4.6590   -0.0280   -1.7700 hc        1 CYC      0.072500
     81 HBD2       -3.3960   -0.4540   -2.6570 hc        1 CYC      0.072500
@<TRIPOS>BOND
     1    1    3 1   
     2    1   44 1   
     3    2    6 1   
     4    3    4 1   
     5    4    5 1   
     6    4    8 1   
     7    5    7 1   
     8    6   13 1   
     9    7   45 1   
    10    7   46 1   
    11    7   47 1   
    12    8    9 1   
    13    8   48 1   
    14    8   49 1   
    15    9   10 1   
    16    9   50 1   
    17    9   51 1   
    18   10   11 1   
    19   10   12 1   
    20   13   15 1   
    21   13   52 1   
    22   14   15 1   
    23   14   18 1   
    24   14   53 1   
    25   15   16 1   
    26   16   17 1   
    27   16   19 1   
    28   17   20 1   
    29   18   22 1   
    30   19   54 1   
    31   19   55 1   
    32   19   56 1   
    33   20   21 1   
    34   20   57 1   
    35   20   58 1   
    36   21   59 1   
    37   21   60 1   
    38   21   61 1   
    39   23   24 1   
    40   23   27 1   
    41   23   62 1   
    42   24   25 1   
    43   24   31 1   
    44   25   26 1   
    45   25   28 1   
    46   25   63 1   
    47   26   27 1   
    48   26   29 1   
    49   26   64 1   
    50   27   32 1   
    51   28   65 1   
    52   28   66 1   
    53   28   67 1   
    54   29   30 1   
    55   29   68 1   
    56   29   69 1   
    57   30   70 1   
    58   30   71 1   
    59   30   72 1   
    60   32   73 1   
    61   33   34 1   
    62   33   37 1   
    63   34   35 1   
    64   35   36 1   
    65   36   37 1   
    66   38   75 1   
    67   38   76 1   
    68   38   77 1   
    69   39   40 1   
    70   39   78 1   
    71   39   79 1   
    72   40   41 1   
    73   40   80 1   
    74   40   81 1   
    75   41   42 1   
    76   41   43 1   
@<TRIPOS>SUBSTRUCTURE
     1 CYC         1 TEMP              0 ****  ****    0 ROOT
