@<TRIPOS>MOLECULE
CYC
   81   115     1     0     0
SMALL
bcc


@<TRIPOS>ATOM
      1 CHA         0.0000    0.0000    0.0000 c2        1 CYC     -0.124000
      2 NA          2.1920    0.0000    1.0830 n2        1 CYC     -0.104000
      3 C1A         1.4090    0.0000    0.0000 c2        1 CYC     -0.155000
      4 C2A         2.2370    0.0010   -1.1480 c3        1 CYC     -0.182000
      5 C3A         3.5240    0.0010   -0.7040 c3        1 CYC      0.390000
      6 C4A         3.4710   -0.0000    0.7080 c2        1 CYC     -0.193000
      7 CMA         4.7670    0.0010   -1.5560 c3        1 CYC      0.216000
      8 CAA         1.7830    0.0010   -2.5840 c3        1 CYC     -0.043000
      9 CBA         1.5090   -1.4360   -3.0320 c3        1 CYC     -0.116000
     10 CGA         1.0530   -1.4350   -4.4690 c2        1 CYC      0.408000
     11 O1A         0.9580   -0.3920   -5.0730 o         1 CYC     -0.603500
     12 O2A         0.7540   -2.5930   -5.0790 o         1 CYC     -0.603500
     13 CHB         4.5880    0.0000    1.5790 c2        1 CYC     -0.243000
     14 NB          3.1980   -0.4280    3.5770 ns        1 CYC     -0.218000
     15 C1B         4.4140   -0.2440    2.9240 c3        1 CYC     -0.227000
     16 C2B         5.4360   -0.3530    3.8910 DU        1 CYC     -0.299000
     17 C3B         4.8400   -0.5970    5.0890 c3        1 CYC      0.024000
     18 C4B         3.4470   -0.6400    4.8830 c2        1 CYC      0.335000
     19 CMB         6.9170   -0.2250    3.6420 c3        1 CYC     -0.040000
     20 CAB         5.5450   -0.7860    6.4070 DU        1 CYC      0.015000
     21 CBB         5.6110    0.5520    7.1470 c3        1 CYC     -0.118000
     22 OB          2.6060   -0.8400    5.7430 o         1 CYC     -0.422000
     23 NC          0.8710    2.4290    4.1720 n7        1 CYC      0.013000
     24 C1C         1.7860    3.1890    4.7860 c3        1 CYC      0.239000
     25 C2C         1.5320    3.1820    6.2760 DU        1 CYC     -0.116000
     26 C3C         0.2940    2.2780    6.4410 DU        1 CYC     -0.039000
     27 C4C        -0.0350    1.8570    5.0260 c3        1 CYC     -0.306000
     28 CAC        -0.8670    3.0630    7.0520 DU        1 CYC      0.074000
     29 CBC        -0.5120    3.4670    8.4850 c3        1 CYC     -0.037000
     30 ND         -0.1810    0.6410    2.3820 n7        1 CYC      0.090000
     31 C1D        -1.1760    0.6250    3.3190 c3        1 CYC     -0.347000
     32 C2D        -2.3340    0.1180    2.7250 DU        1 CYC     -0.313000
     33 C3D        -2.0410   -0.1800    1.4120 DU        1 CYC      0.439000
     34 C4D        -0.6940    0.1460    1.1930 c2        1 CYC     -0.257000
     35 CGD        -4.6570   -0.1830   -1.3540 c2        1 CYC      0.493000
     36 O1D        -4.7600   -1.3800   -1.4800 o         1 CYC     -0.514000
     37 O2D        -5.3930    0.6380   -2.1200 o         1 CYC     -0.514000
     38 HHA        -0.7120    0.0500    0.8150 ha        1 CYC      0.383000
     39 HMA1        4.0230    0.1160   -0.7770 DU        1 CYC     -0.634000
     40 HMA2        4.5610    0.2880   -0.5320 DU        1 CYC      0.017000
     41 HMA3        3.7670    0.0080   -1.1400 DU        1 CYC     -0.202000
     42 HAA1        1.9490    0.5010   -1.6370 DU        1 CYC      0.194000
     43 HAA2        0.8970    0.0910   -1.9670 hc        1 CYC      0.021000
     44 HBA1        0.8270   -0.9590   -2.3380 hc        1 CYC      0.154500
     45 HBA2        2.5440   -1.2580   -2.7670 hc        1 CYC      0.154500
     46 HHB         5.0110   -0.0070    0.5820 ha        1 CYC      0.293000
     47 HB          3.4580   -0.2100    2.6350 DU        1 CYC      0.399000
     48 HMB1        6.3380   -0.1370    2.7310 DU        1 CYC      0.211000
     49 HMB2        6.1720   -0.1250    2.8630 DU        1 CYC      0.255000
     50 HMB3        6.1560   -0.4270    2.8980 DU        1 CYC     -0.114000
     51 HAB1        5.2040   -0.9210    5.3870 DU        1 CYC     -0.093000
     52 HAB2        5.5520   -0.5770    5.3440 DU        1 CYC     -0.265000
     53 HBB1        4.9300    0.3560    6.3270 DU        1 CYC     -0.042000
     54 HBB2        6.1490    0.1220    6.3110 DU        1 CYC      0.271000
     55 HBB3        5.9470    0.3300    6.1410 DU        1 CYC      0.108000
     56 HC          1.8390    2.1800    4.1250 DU        1 CYC      0.133000
     57 H2C         2.1710    2.3180    6.4110 DU        1 CYC      0.132000
     58 H3C         1.2440    1.7580    6.4090 ha        1 CYC      0.218000
     59 HAC1        0.1170    2.6350    7.2000 DU        1 CYC      0.071500
     60 HAC2        0.1610    2.7310    7.1310 DU        1 CYC      0.071500
     61 HBC1        0.4600    3.1250    8.1520 hc        1 CYC      0.009000
     62 HBC2       -0.2490    3.2400    7.4590 DU        1 CYC     -0.215000
     63 HBC3        0.2200    3.7570    7.7410 hc        1 CYC      0.009000
     64 HD         -0.0300    0.8010    3.3580 DU        1 CYC      0.286000
     65 HAD1       -2.7290   -0.1080    1.2240 DU        1 CYC     -0.323500
     66 HAD2       -2.8160   -0.2910    1.3580 DU        1 CYC     -0.323500
     67 HBD1       -3.3150    0.6320    0.6450 hc        1 CYC      0.235500
     68 HBD2       -3.4530    0.7600    0.6490 hc        1 CYC      0.235500
     69 CMD        -3.6670   -0.0720    3.4010 c3        1 CYC     -0.041000
     70 CHD        -1.0540    1.0510    4.6630 c2        1 CYC     -0.134000
     71 CMC         2.7300    2.5920    7.0220 DU        1 CYC      0.442000
     72 HMC1        2.1650    2.2760    6.1540 DU        1 CYC      0.188000
     73 HMC2        1.8820    2.2860    6.4220 DU        1 CYC     -0.375000
     74 HMC3        1.9130    2.4730    6.3210 DU        1 CYC     -0.390000
     75 HHD        -0.2680    1.4120    5.3160 DU        1 CYC      0.239000
     76 HMD1       -2.7160    0.2590    3.8010 DU        1 CYC     -0.141000
     77 HMD2       -2.7600    0.1320    3.9570 DU        1 CYC      0.402000
     78 HMD3       -2.9170    0.1420    4.1530 DU        1 CYC      0.106000
     79 CAD        -2.9950   -0.7520    0.3950 c3        1 CYC      0.004000
     80 OC          2.6830    3.7890    4.2320 o         1 CYC     -0.323000
     81 CBD        -3.7040    0.3900   -0.3370 c3        1 CYC     -0.228000
@<TRIPOS>BOND
     1    1    3 1   
     2    1   34 1   
     3    1   38 1   
     4    2    3 1   
     5    2    6 1   
     6    3    4 1   
     7    4    5 1   
     8    4    8 1   
     9    4   42 1   
    10    5    6 1   
    11    5    7 1   
    12    5   40 1   
    13    6   13 1   
    14    7   39 1   
    15    7   40 1   
    16    7   41 1   
    17    8    9 1   
    18    8   42 1   
    19    8   43 1   
    20    9   10 1   
    21    9   44 1   
    22    9   45 1   
    23   10   11 1   
    24   10   12 1   
    25   13   15 1   
    26   13   46 1   
    27   14   15 1   
    28   14   18 1   
    29   14   47 1   
    30   15   16 1   
    31   15   47 1   
    32   16   17 1   
    33   16   19 1   
    34   16   49 1   
    35   16   50 1   
    36   17   18 1   
    37   17   20 1   
    38   17   52 1   
    39   18   22 1   
    40   19   48 1   
    41   19   49 1   
    42   19   50 1   
    43   20   21 1   
    44   20   51 1   
    45   20   52 1   
    46   20   53 1   
    47   20   54 1   
    48   21   53 1   
    49   21   54 1   
    50   21   55 1   
    51   23   24 1   
    52   23   27 1   
    53   23   56 1   
    54   24   25 1   
    55   24   56 1   
    56   24   80 1   
    57   25   26 1   
    58   25   57 1   
    59   25   71 1   
    60   25   72 1   
    61   25   73 1   
    62   26   27 1   
    63   26   28 1   
    64   26   58 1   
    65   26   59 1   
    66   26   60 1   
    67   27   70 1   
    68   27   75 1   
    69   28   29 1   
    70   28   59 1   
    71   28   60 1   
    72   28   62 1   
    73   29   61 1   
    74   29   62 1   
    75   29   63 1   
    76   30   31 1   
    77   30   34 1   
    78   30   64 1   
    79   31   32 1   
    80   31   64 1   
    81   31   70 1   
    82   32   33 1   
    83   32   69 1   
    84   32   76 1   
    85   32   77 1   
    86   33   34 1   
    87   33   65 1   
    88   33   66 1   
    89   33   79 1   
    90   35   36 1   
    91   35   37 1   
    92   35   81 1   
    93   39   40 1   
    94   39   41 1   
    95   48   50 1   
    96   49   50 1   
    97   51   52 1   
    98   54   55 1   
    99   57   71 1   
   100   57   74 1   
   101   65   79 1   
   102   66   79 1   
   103   67   81 1   
   104   68   81 1   
   105   69   76 1   
   106   69   77 1   
   107   69   78 1   
   108   70   75 1   
   109   71   72 1   
   110   71   73 1   
   111   71   74 1   
   112   72   73 1   
   113   72   74 1   
   114   76   78 1   
   115   79   81 1   
@<TRIPOS>SUBSTRUCTURE
     1 CYC         1 TEMP              0 ****  ****    0 ROOT
