@<TRIPOS>MOLECULE
CYD
   31    30     1     0     0
SMALL
bcc


@<TRIPOS>ATOM
      1 N          -5.0660   -1.3190   -2.8440 n3        1 CYD     -0.885800
      2 CA         -3.6130   -1.3700   -2.8100 c3        1 CYD      0.029500
      3 CB         -3.1270   -1.1460   -1.3900 c3        1 CYD      0.022700
      4 SG         -1.3780   -0.7680   -1.4140 ss        1 CYD     -0.308200
      5 C          -3.1550   -2.6990   -3.2830 c         1 CYD      0.890600
      6 O          -3.6150   -3.7370   -2.7660 o         1 CYD     -0.842300
      7 OXT        -2.2680   -2.7790   -4.1700 o         1 CYD     -0.842300
      8 C1         -0.9030   -0.0360    0.1330 c3        1 CYD     -0.131300
      9 N1          4.2800    2.5460    1.7400 n3        1 CYD     -0.892800
     10 C5          3.4240    1.6330    2.3700 c3        1 CYD      0.022500
     11 C4          2.7850    0.7270    1.3240 c3        1 CYD     -0.057400
     12 C3          1.2480    1.0040    1.2710 c3        1 CYD     -0.175400
     13 C2          0.5950    0.1250    0.1720 c         1 CYD      0.594100
     14 O1          1.2940   -0.4940   -0.6090 o         1 CYD     -0.564100
     15 C6          4.2220    0.7870    3.3560 c         1 CYD      0.887600
     16 OT3         3.8930    0.7620    4.5730 o         1 CYD     -0.849300
     17 OT4         5.1640    0.0280    2.9330 o         1 CYD     -0.849300
     18 H          -5.3700   -1.6470   -3.6610 hn        1 CYD      0.332300
     19 H2         -5.3500   -0.4330   -2.7390 hn        1 CYD      0.332300
     20 HA         -3.2510   -0.6800   -3.3880 h1        1 CYD      0.058700
     21 HB2        -3.2780   -1.9520   -0.8640 h1        1 CYD      0.067200
     22 HB3        -3.6230   -0.3910   -0.9870 h1        1 CYD      0.067200
     23 H11        -1.1840   -0.6070    0.8600 h1        1 CYD      0.076200
     24 H12        -1.3200    0.8250    0.2220 h1        1 CYD      0.076200
     25 HN11        5.0040    2.7160    2.2870 hn        1 CYD      0.329800
     26 HN12        3.8280    3.3270    1.5810 hn        1 CYD      0.329800
     27 H5          2.7250    2.1200    2.8500 h1        1 CYD      0.043700
     28 H41         2.9390   -0.1990    1.5610 hc        1 CYD      0.052200
     29 H42         3.1730    0.9060    0.4630 hc        1 CYD      0.052200
     30 H31         1.0920    1.9690    1.0610 hc        1 CYD      0.067200
     31 H32         0.8350    0.7840    2.1670 hc        1 CYD      0.067200
@<TRIPOS>BOND
     1    1    2 1   
     2    1   18 1   
     3    1   19 1   
     4    2    3 1   
     5    2    5 1   
     6    2   20 1   
     7    3    4 1   
     8    3   21 1   
     9    3   22 1   
    10    4    8 1   
    11    5    6 1   
    12    5    7 1   
    13    8   13 1   
    14    8   23 1   
    15    8   24 1   
    16    9   10 1   
    17    9   25 1   
    18    9   26 1   
    19   10   11 1   
    20   10   15 1   
    21   10   27 1   
    22   11   12 1   
    23   11   28 1   
    24   11   29 1   
    25   12   13 1   
    26   12   30 1   
    27   12   31 1   
    28   13   14 2   
    29   15   16 1   
    30   15   17 1   
@<TRIPOS>SUBSTRUCTURE
     1 CYD         1 TEMP              0 ****  ****    0 ROOT
