@<TRIPOS>MOLECULE
CYD
   31    30     1     0     0
SMALL
bcc


@<TRIPOS>ATOM
      1 N           4.2560   -1.0970   -1.4700 n3        1 CYD     -0.885800
      2 CA          4.1690   -0.0380   -0.4730 c3        1 CYD      0.029500
      3 CB          2.9750   -0.1650    0.4600 c3        1 CYD      0.022700
      4 SG          1.4530   -0.0330   -0.4560 ss        1 CYD     -0.308200
      5 C           5.4570    0.1170    0.4140 c         1 CYD      0.890600
      6 O           6.4680   -0.5810    0.1150 o         1 CYD     -0.842300
      7 OXT         5.4210    0.9480    1.3620 o         1 CYD     -0.842300
      8 C1          0.2750    0.1240    0.8590 c3        1 CYD     -0.131300
      9 N1         -4.6900   -0.0080   -1.6830 n3        1 CYD     -0.892800
     10 C5         -4.1710   -0.8650   -0.6240 c3        1 CYD      0.022500
     11 C4         -3.1330   -0.1780    0.2640 c3        1 CYD     -0.057400
     12 C3         -1.8850    0.2150   -0.5030 c3        1 CYD     -0.175400
     13 C2         -0.9060    0.9230    0.3920 c         1 CYD      0.594100
     14 O1         -1.0680    2.0960    0.7530 o         1 CYD     -0.564100
     15 C6         -5.2760   -1.4860    0.2950 c         1 CYD      0.887600
     16 OT3        -4.9040   -2.2350    1.2400 o         1 CYD     -0.849300
     17 OT4        -6.4870   -1.2310    0.0290 o         1 CYD     -0.849300
     18 H           5.2170   -1.1430   -1.7730 hn        1 CYD      0.332300
     19 H2          4.0520   -1.9780   -1.0320 hn        1 CYD      0.332300
     20 HA          4.0710    0.9290   -1.0490 h1        1 CYD      0.058700
     21 HB2         2.9940   -1.1390    1.0020 h1        1 CYD      0.067200
     22 HB3         3.0460    0.6570    1.2160 h1        1 CYD      0.067200
     23 H11        -0.0740   -0.8900    1.1740 h1        1 CYD      0.076200
     24 H12         0.7500    0.6200    1.7410 h1        1 CYD      0.076200
     25 H5         -3.6690   -1.7340   -1.1420 h1        1 CYD      0.043700
     26 H41        -3.5770    0.7320    0.7440 hc        1 CYD      0.052200
     27 H42        -2.8700   -0.9010    1.0830 hc        1 CYD      0.052200
     28 H31        -1.4070   -0.6960   -0.9480 hc        1 CYD      0.067200
     29 H32        -2.1590    0.9040   -1.3460 hc        1 CYD      0.067200
     30 HN11       -5.5670   -0.4030   -1.9850 hn        1 CYD      0.329800
     31 HN12       -4.9060    0.8920   -1.2920 hn        1 CYD      0.329800
@<TRIPOS>BOND
     1    1    2 1   
     2    1   18 1   
     3    1   19 1   
     4    2    3 1   
     5    2    5 1   
     6    2   20 1   
     7    3    4 1   
     8    3   21 1   
     9    3   22 1   
    10    4    8 1   
    11    5    6 1   
    12    5    7 1   
    13    8   13 1   
    14    8   23 1   
    15    8   24 1   
    16    9   10 1   
    17    9   30 1   
    18    9   31 1   
    19   10   11 1   
    20   10   15 1   
    21   10   25 1   
    22   11   12 1   
    23   11   26 1   
    24   11   27 1   
    25   12   13 1   
    26   12   28 1   
    27   12   29 1   
    28   13   14 2   
    29   15   16 1   
    30   15   17 1   
@<TRIPOS>SUBSTRUCTURE
     1 CYD         1 TEMP              0 ****  ****    0 ROOT
