@<TRIPOS>MOLECULE
CYG
   28    27     1     0     0
SMALL
bcc


@<TRIPOS>ATOM
      1 N          -1.4790   -0.9440   -3.8220 n3        1 CYG     -0.901800
      2 CA         -0.5300    0.1510   -3.7900 c3        1 CYG      0.035500
      3 C           0.4060    0.1900   -5.0560 c         1 CYG      0.916600
      4 O           0.6940   -0.9020   -5.6210 o         1 CYG     -0.837800
      5 CB          0.3930    0.1930   -2.5770 c3        1 CYG     -0.004300
      6 SG         -0.5470    0.5060   -1.0900 ss        1 CYG     -0.337700
      7 N1         -1.5970    1.0660    3.9540 n3        1 CYG     -0.894800
      8 CA1        -0.5830    0.0180    3.9270 c3        1 CYG      0.022500
      9 CB1         0.2320   -0.0100    2.6320 c3        1 CYG     -0.056400
     10 CG1        -0.6390   -0.3000    1.4260 c3        1 CYG     -0.164400
     11 CD1         0.1520   -0.4610    0.1600 c         1 CYG      0.584700
     12 OE2         1.1270   -1.2110    0.0450 o         1 CYG     -0.553100
     13 C1          0.4050    0.0530    5.1390 c         1 CYG      0.888600
     14 O1          0.3090    1.0100    5.9630 o         1 CYG     -0.848800
     15 O2          1.2280   -0.8970    5.2540 o         1 CYG     -0.848800
     16 OXT         0.8190    1.3230   -5.4220 o         1 CYG     -0.837800
     17 H          -1.5810   -1.3390   -2.9050 hn        1 CYG      0.337300
     18 H2         -1.1320   -1.6610   -4.4360 hn        1 CYG      0.337300
     19 HA         -1.1360    1.1040   -3.7990 h1        1 CYG      0.055700
     20 HB2         1.1170    1.0330   -2.7130 h1        1 CYG      0.080700
     21 HB3         0.9680   -0.7570   -2.4620 h1        1 CYG      0.080700
     22 HA1        -1.1430   -0.9600    4.0080 h1        1 CYG      0.040700
     23 HB13        0.7630    0.9660    2.4890 hc        1 CYG      0.056700
     24 HB12        1.0140   -0.8090    2.7410 hc        1 CYG      0.056700
     25 HG13       -1.2000   -1.2590    1.5980 hc        1 CYG      0.067200
     26 HG12       -1.3990    0.5170    1.2950 hc        1 CYG      0.067200
     27 HN11       -1.8050    1.2570    4.9220 hn        1 CYG      0.329800
     28 HN12       -1.2000    1.9100    3.5800 hn        1 CYG      0.329800
@<TRIPOS>BOND
     1    1    2 1   
     2    1   17 1   
     3    1   18 1   
     4    2    3 1   
     5    2    5 1   
     6    2   19 1   
     7    3    4 1   
     8    3   16 1   
     9    5    6 1   
    10    5   20 1   
    11    5   21 1   
    12    6   11 1   
    13    7    8 1   
    14    7   27 1   
    15    7   28 1   
    16    8    9 1   
    17    8   13 1   
    18    8   22 1   
    19    9   10 1   
    20    9   23 1   
    21    9   24 1   
    22   10   11 1   
    23   10   25 1   
    24   10   26 1   
    25   11   12 2   
    26   13   14 1   
    27   13   15 1   
@<TRIPOS>SUBSTRUCTURE
     1 CYG         1 TEMP              0 ****  ****    0 ROOT
