@<TRIPOS>MOLECULE
CYH
   17    17     1     0     0
SMALL
bcc


@<TRIPOS>ATOM
      1 C1         -0.0190    0.0280   -0.0220 c         1 CYH      0.570100
      2 O1         -0.6510    0.8060   -0.7430 o         1 CYH     -0.533100
      3 C2          1.4840    0.0250    0.0250 c3        1 CYH     -0.181400
      4 C3          2.0030   -0.0260    1.4460 c3        1 CYH     -0.072400
      5 C4          1.3690   -1.1540    2.2320 c3        1 CYH     -0.083400
      6 C5         -0.1410   -1.0310    2.2380 c3        1 CYH     -0.072400
      7 C6         -0.7040   -1.0010    0.8330 c3        1 CYH     -0.181400
      8 H21         1.8820    0.9350   -0.4960 hc        1 CYH      0.068700
      9 H22         1.8390   -0.8760   -0.5440 hc        1 CYH      0.068700
     10 H31         1.7920    0.9510    1.9560 hc        1 CYH      0.047200
     11 H32         3.1160   -0.1590    1.4260 hc        1 CYH      0.047200
     12 H41         1.7500   -1.1360    3.2860 hc        1 CYH      0.044200
     13 H42         1.6640   -2.1380    1.7840 hc        1 CYH      0.044200
     14 H51        -0.5880   -1.8960    2.7950 hc        1 CYH      0.047200
     15 H52        -0.4380   -0.0950    2.7800 hc        1 CYH      0.047200
     16 H61        -0.5600   -2.0010    0.3430 hc        1 CYH      0.068700
     17 H62        -1.8060   -0.7950    0.8670 hc        1 CYH      0.068700
@<TRIPOS>BOND
     1    1    2 2   
     2    1    3 1   
     3    1    7 1   
     4    3    4 1   
     5    3    8 1   
     6    3    9 1   
     7    4    5 1   
     8    4   10 1   
     9    4   11 1   
    10    5    6 1   
    11    5   12 1   
    12    5   13 1   
    13    6    7 1   
    14    6   14 1   
    15    6   15 1   
    16    7   16 1   
    17    7   17 1   
@<TRIPOS>SUBSTRUCTURE
     1 CYH         1 TEMP              0 ****  ****    0 ROOT
