@<TRIPOS>MOLECULE
CYH
   17    17     1     0     0
SMALL
bcc


@<TRIPOS>ATOM
      1 C1         -0.0230    0.0190   -0.0300 c         1 CYH      0.570100
      2 O1         -0.6550    0.7950   -0.7530 o         1 CYH     -0.533100
      3 C2          1.4800    0.0130    0.0120 c3        1 CYH     -0.181400
      4 C3          2.0040   -0.0320    1.4320 c3        1 CYH     -0.072400
      5 C4          1.3690   -1.1550    2.2250 c3        1 CYH     -0.083400
      6 C5         -0.1400   -1.0290    2.2360 c3        1 CYH     -0.072400
      7 C6         -0.7070   -1.0050    0.8320 c3        1 CYH     -0.181400
      8 H21         1.8320   -0.8920   -0.5540 hc        1 CYH      0.068700
      9 H22         1.8780    0.9190   -0.5140 hc        1 CYH      0.068700
     10 H31         3.1160   -0.1680    1.4090 hc        1 CYH      0.047200
     11 H32         1.7960    0.9480    1.9380 hc        1 CYH      0.047200
     12 H41         1.7540   -1.1330    3.2780 hc        1 CYH      0.044200
     13 H42         1.6620   -2.1420    1.7810 hc        1 CYH      0.044200
     14 H51        -0.4340   -0.0900    2.7730 hc        1 CYH      0.047200
     15 H52        -0.5870   -1.8910    2.7980 hc        1 CYH      0.047200
     16 H61        -1.8090   -0.7960    0.8680 hc        1 CYH      0.068700
     17 H62        -0.5660   -2.0080    0.3450 hc        1 CYH      0.068700
@<TRIPOS>BOND
     1    1    2 2   
     2    1    3 1   
     3    1    7 1   
     4    3    4 1   
     5    3    8 1   
     6    3    9 1   
     7    4    5 1   
     8    4   10 1   
     9    4   11 1   
    10    5    6 1   
    11    5   12 1   
    12    5   13 1   
    13    6    7 1   
    14    6   14 1   
    15    6   15 1   
    16    7   16 1   
    17    7   17 1   
@<TRIPOS>SUBSTRUCTURE
     1 CYH         1 TEMP              0 ****  ****    0 ROOT
