@<TRIPOS>MOLECULE
CYH
   17    17     1     0     0
SMALL
bcc


@<TRIPOS>ATOM
      1 C1         -0.0000   -0.0950   -1.0750 c         1 CYH      0.570100
      2 O1         -0.0010    0.2660   -2.2560 o         1 CYH     -0.533100
      3 C2          1.2740   -0.3470   -0.3180 c3        1 CYH     -0.181400
      4 C3          1.2490    0.2900    1.0550 c3        1 CYH     -0.072400
      5 C4          0.0010   -0.0910    1.8240 c3        1 CYH     -0.083400
      6 C5         -1.2480    0.2870    1.0560 c3        1 CYH     -0.072400
      7 C6         -1.2740   -0.3490   -0.3170 c3        1 CYH     -0.181400
      8 H21         1.3980   -1.4590   -0.2220 hc        1 CYH      0.068700
      9 H22         2.1470    0.0440   -0.9050 hc        1 CYH      0.068700
     10 H31         2.1580   -0.0330    1.6270 hc        1 CYH      0.047200
     11 H32         1.2980    1.4060    0.9510 hc        1 CYH      0.047200
     12 H41         0.0020   -1.1960    2.0190 hc        1 CYH      0.044200
     13 H42         0.0010    0.4270    2.8180 hc        1 CYH      0.044200
     14 H51        -2.1560   -0.0380    1.6290 hc        1 CYH      0.047200
     15 H52        -1.3000    1.4030    0.9520 hc        1 CYH      0.047200
     16 H61        -2.1480    0.0390   -0.9030 hc        1 CYH      0.068700
     17 H62        -1.3950   -1.4620   -0.2210 hc        1 CYH      0.068700
@<TRIPOS>BOND
     1    1    2 2   
     2    1    3 1   
     3    1    7 1   
     4    3    4 1   
     5    3    8 1   
     6    3    9 1   
     7    4    5 1   
     8    4   10 1   
     9    4   11 1   
    10    5    6 1   
    11    5   12 1   
    12    5   13 1   
    13    6    7 1   
    14    6   14 1   
    15    6   15 1   
    16    7   16 1   
    17    7   17 1   
@<TRIPOS>SUBSTRUCTURE
     1 CYH         1 TEMP              0 ****  ****    0 ROOT
