@<TRIPOS>MOLECULE
CYH
   17    16     1     0     0
SMALL
bcc


@<TRIPOS>ATOM
      1 C1         -0.7620    0.5860   -1.1790 c1        1 CYH      0.231000
      2 O1         -1.3700    1.0390   -2.1290 o         1 CYH     -0.294000
      3 C2          0.7800    0.5860   -1.1790 c2        1 CYH     -0.210000
      4 C3          1.2770    0.5860    0.2510 c3        1 CYH     -0.151000
      5 C4          0.6760   -0.4800    1.0960 c3        1 CYH     -0.162000
      6 C5         -0.8080   -0.4890    1.0660 c3        1 CYH     -0.151000
      7 C6         -1.3890   -0.5310   -0.3260 c3        1 CYH     -0.210000
      8 H21         1.2130   -0.1450   -1.6600 ha        1 CYH      0.108000
      9 H22         1.0910    1.3570   -1.6900 ha        1 CYH      0.108000
     10 H31         2.2450    0.4680    0.2440 hc        1 CYH      0.086500
     11 H32         1.0710    1.4520    0.6520 hc        1 CYH      0.086500
     12 H41         0.9690   -0.3500    2.0180 hc        1 CYH      0.083500
     13 H42         1.0000   -1.3460    0.7830 hc        1 CYH      0.083500
     14 H51        -1.1240   -1.2700    1.5590 hc        1 CYH      0.086500
     15 H52        -1.1330    0.3150    1.5140 hc        1 CYH      0.086500
     16 H61        -1.3870   -1.4000   -0.7720 hc        1 CYH      0.108000
     17 H62        -2.3500   -0.3780   -0.2470 hc        1 CYH      0.108000
@<TRIPOS>BOND
     1    1    2 1   
     2    1    7 1   
     3    3    4 1   
     4    3    8 1   
     5    3    9 1   
     6    4    5 1   
     7    4   10 1   
     8    4   11 1   
     9    5    6 1   
    10    5   12 1   
    11    5   13 1   
    12    6    7 1   
    13    6   14 1   
    14    6   15 1   
    15    7   16 1   
    16    7   17 1   
@<TRIPOS>SUBSTRUCTURE
     1 CYH         1 TEMP              0 ****  ****    0 ROOT
