@<TRIPOS>MOLECULE
CYI
   19    19     1     0     0
SMALL
bcc


@<TRIPOS>ATOM
      1 C1          0.0190   -0.0890    0.0450 c3        1 CYI     -0.081400
      2 C2          1.5340   -0.0720    0.0570 c3        1 CYI     -0.077400
      3 C3          2.0770    0.0680    1.4630 c3        1 CYI     -0.088400
      4 C4          1.5280    1.3520    2.1160 c3        1 CYI      0.287800
      5 C5         -0.0130    1.2840    2.1390 c3        1 CYI     -0.088400
      6 C6         -0.5460    1.1380    0.7290 c3        1 CYI     -0.077400
      7 N           2.0830    1.5960    3.3950 n1        1 CYI     -0.844300
      8 C           2.5500    1.8080    4.4580 c1        1 CYI      0.427800
      9 H11        -0.3480   -1.0110    0.5680 hc        1 CYI      0.044200
     10 H12        -0.3480   -0.1330   -1.0130 hc        1 CYI      0.044200
     11 H21         1.9240   -1.0210   -0.3940 hc        1 CYI      0.045200
     12 H22         1.9040    0.7780   -0.5760 hc        1 CYI      0.045200
     13 H31         3.1970    0.1040    1.4290 hc        1 CYI      0.053200
     14 H32         1.7810   -0.8230    2.0750 hc        1 CYI      0.053200
     15 H4          1.8250    2.2290    1.4590 h1        1 CYI      0.060700
     16 H51        -0.3440    0.4130    2.7610 hc        1 CYI      0.053200
     17 H52        -0.4310    2.2160    2.6010 hc        1 CYI      0.053200
     18 H61        -1.6640    1.0670    0.7650 hc        1 CYI      0.045200
     19 H62        -0.2870    2.0520    0.1320 hc        1 CYI      0.045200
@<TRIPOS>BOND
     1    1    2 1   
     2    1    6 1   
     3    1    9 1   
     4    1   10 1   
     5    2    3 1   
     6    2   11 1   
     7    2   12 1   
     8    3    4 1   
     9    3   13 1   
    10    3   14 1   
    11    4    5 1   
    12    4    7 1   
    13    4   15 1   
    14    5    6 1   
    15    5   16 1   
    16    5   17 1   
    17    6   18 1   
    18    6   19 1   
    19    7    8 3   
@<TRIPOS>SUBSTRUCTURE
     1 CYI         1 TEMP              0 ****  ****    0 ROOT
