@<TRIPOS>MOLECULE
CYI
   19    19     1     0     0
SMALL
bcc


@<TRIPOS>ATOM
      1 C1          0.0150    0.0410   -0.0400 c3        1 CYI     -0.081400
      2 C2          1.5280   -0.0110    0.0110 c3        1 CYI     -0.077400
      3 C3          2.0350   -0.0230    1.4380 c3        1 CYI     -0.088400
      4 C4          1.5220    1.2200    2.1920 c3        1 CYI      0.287800
      5 C5         -0.0200    1.2200    2.1680 c3        1 CYI     -0.088400
      6 C6         -0.5170    1.2260    0.7380 c3        1 CYI     -0.077400
      7 N           2.0490    1.3220    3.5010 n1        1 CYI     -0.844300
      8 C           2.4930    1.4150    4.5900 c1        1 CYI      0.427800
      9 H11        -0.3230    0.1100   -1.1070 hc        1 CYI      0.044200
     10 H12        -0.4070   -0.9070    0.3860 hc        1 CYI      0.044200
     11 H21         1.8900   -0.9320   -0.5150 hc        1 CYI      0.045200
     12 H22         1.9520    0.8750   -0.5310 hc        1 CYI      0.045200
     13 H31         1.6840   -0.9520    1.9570 hc        1 CYI      0.053200
     14 H32         3.1560   -0.0340    1.4350 hc        1 CYI      0.053200
     15 H4          1.8750    2.1380    1.6250 h1        1 CYI      0.060700
     16 H51        -0.4110    2.1230    2.7040 hc        1 CYI      0.053200
     17 H52        -0.4060    0.3120    2.7000 hc        1 CYI      0.053200
     18 H61        -0.2020    2.1780    0.2340 hc        1 CYI      0.045200
     19 H62        -1.6380    1.2020    0.7400 hc        1 CYI      0.045200
@<TRIPOS>BOND
     1    1    2 1   
     2    1    6 1   
     3    1    9 1   
     4    1   10 1   
     5    2    3 1   
     6    2   11 1   
     7    2   12 1   
     8    3    4 1   
     9    3   13 1   
    10    3   14 1   
    11    4    5 1   
    12    4    7 1   
    13    4   15 1   
    14    5    6 1   
    15    5   16 1   
    16    5   17 1   
    17    6   18 1   
    18    6   19 1   
    19    7    8 3   
@<TRIPOS>SUBSTRUCTURE
     1 CYI         1 TEMP              0 ****  ****    0 ROOT
