@<TRIPOS>MOLECULE
CYI
   19    19     1     0     0
SMALL
bcc


@<TRIPOS>ATOM
      1 C1          2.1920    0.0000    0.3120 c3        1 CYI     -0.081400
      2 C2          1.4940    1.2490   -0.1840 c3        1 CYI     -0.077400
      3 C3          0.0290    1.2550    0.1970 c3        1 CYI     -0.088400
      4 C4         -0.6690   -0.0000   -0.3650 c3        1 CYI      0.287800
      5 C5          0.0290   -1.2550    0.1970 c3        1 CYI     -0.088400
      6 C6          1.4940   -1.2490   -0.1840 c3        1 CYI     -0.077400
      7 N          -2.0650   -0.0000   -0.1330 n1        1 CYI     -0.844300
      8 C          -3.2300   -0.0000    0.0500 c1        1 CYI      0.427800
      9 H11         3.2570    0.0000   -0.0380 hc        1 CYI      0.044200
     10 H12         2.2060    0.0000    1.4340 hc        1 CYI      0.044200
     11 H21         1.5930    1.3160   -1.3000 hc        1 CYI      0.045200
     12 H22         1.9900    2.1550    0.2520 hc        1 CYI      0.045200
     13 H31        -0.4590    2.1790   -0.2090 hc        1 CYI      0.053200
     14 H32        -0.0730    1.2760    1.3130 hc        1 CYI      0.053200
     15 H4         -0.5240   -0.0000   -1.4910 h1        1 CYI      0.060700
     16 H51        -0.0730   -1.2760    1.3130 hc        1 CYI      0.053200
     17 H52        -0.4590   -2.1790   -0.2090 hc        1 CYI      0.053200
     18 H61         1.5930   -1.3160   -1.3000 hc        1 CYI      0.045200
     19 H62         1.9900   -2.1550    0.2520 hc        1 CYI      0.045200
@<TRIPOS>BOND
     1    1    2 1   
     2    1    6 1   
     3    1    9 1   
     4    1   10 1   
     5    2    3 1   
     6    2   11 1   
     7    2   12 1   
     8    3    4 1   
     9    3   13 1   
    10    3   14 1   
    11    4    5 1   
    12    4    7 1   
    13    4   15 1   
    14    5    6 1   
    15    5   16 1   
    16    5   17 1   
    17    6   18 1   
    18    6   19 1   
    19    7    8 3   
@<TRIPOS>SUBSTRUCTURE
     1 CYI         1 TEMP              0 ****  ****    0 ROOT
