@<TRIPOS>MOLECULE
CYJ
   49    49     1     0     0
SMALL
bcc


@<TRIPOS>ATOM
      1 O4          5.2620   -6.0280   -1.9080 o         1 CYJ     -0.869300
      2 C11         5.9910   -5.2600   -1.2130 c         1 CYJ      0.905600
      3 O3          7.2170   -5.5010   -0.9900 o         1 CYJ     -0.869300
      4 C10         5.3690   -4.0220   -0.5530 c3        1 CYJ     -0.184400
      5 C9          4.5900   -3.1480   -1.5130 c3        1 CYJ     -0.059400
      6 C8          3.6540   -2.1990   -0.7750 c3        1 CYJ     -0.086700
      7 C7          2.3450   -2.9190   -0.4180 c3        1 CYJ      0.143800
      8 N6          1.4090   -2.1200    0.3570 n3        1 CYJ     -0.807200
      9 C5          1.1480   -0.8360   -0.2650 c3        1 CYJ      0.097500
     10 C3          3.3510   -0.8970   -1.5320 c3        1 CYJ     -0.132000
     11 C2          2.7930   -1.1170   -2.9260 c3        1 CYJ     -0.181400
     12 C1          2.8480    0.1260   -3.8280 c         1 CYJ      0.908600
     13 O1          2.0550    0.1590   -4.8170 o         1 CYJ     -0.864300
     14 O2          3.6840    1.0460   -3.5860 o         1 CYJ     -0.864300
     15 C4          2.4020   -0.0620   -0.6880 c2        1 CYJ      0.406300
     16 NZ          2.5030    1.1620   -0.3060 n2        1 CYJ     -0.617900
     17 CE          3.5770    2.0300   -0.6990 c3        1 CYJ      0.106800
     18 CD          3.8630    3.1410    0.3150 c3        1 CYJ     -0.062400
     19 CG          2.7460    4.1540    0.4580 c3        1 CYJ     -0.075400
     20 CB          3.1910    5.3380    1.2950 c3        1 CYJ     -0.088400
     21 CA          2.0670    6.3320    1.6120 c3        1 CYJ      0.036500
     22 N           1.4490    6.9630    0.4560 n3        1 CYJ     -0.905800
     23 C           2.6350    7.3660    2.6380 c         1 CYJ      0.903600
     24 O           3.0220    8.4970    2.2170 o         1 CYJ     -0.859300
     25 OXT         2.6800    7.0250    3.8540 o         1 CYJ     -0.859300
     26 H101        6.1800   -3.4220   -0.0670 hc        1 CYJ      0.015200
     27 H102        4.6900   -4.3930    0.2590 hc        1 CYJ      0.015200
     28 H9C1        4.0050   -3.8040   -2.2110 hc        1 CYJ      0.050200
     29 H9C2        5.3040   -2.5510   -2.1380 hc        1 CYJ      0.050200
     30 H8          4.1630   -1.8990    0.1870 hc        1 CYJ      0.024700
     31 H7C1        1.8300   -3.2240   -1.3710 h1        1 CYJ      0.049200
     32 H7C2        2.5800   -3.8530    0.1650 h1        1 CYJ      0.049200
     33 H6          1.8020   -1.9620    1.2700 hn        1 CYJ      0.330800
     34 H5C1        0.5150   -0.2310    0.4430 h1        1 CYJ      0.055200
     35 H5C2        0.5470   -1.0160   -1.2010 h1        1 CYJ      0.055200
     36 HA          4.3270   -0.3450   -1.6680 hc        1 CYJ      0.079700
     37 H2C1        3.3970   -1.9130   -3.4360 hc        1 CYJ      0.032700
     38 H2C2        1.7350   -1.4780   -2.8790 hc        1 CYJ      0.032700
     39 HEC1        3.3030    2.4820   -1.7000 h1        1 CYJ      0.066700
     40 HEC2        4.5470    1.4750   -0.8680 h1        1 CYJ      0.066700
     41 HDC1        4.7920    3.6660   -0.0330 hc        1 CYJ      0.021700
     42 HDC2        4.0890    2.6970    1.3190 hc        1 CYJ      0.021700
     43 HGC1        1.8550    3.6680    0.9330 hc        1 CYJ      0.041200
     44 HGC2        2.4290    4.4950   -0.5630 hc        1 CYJ      0.041200
     45 HBC1        4.0270    5.8730    0.7730 hc        1 CYJ      0.036200
     46 HBC2        3.5910    4.9700    2.2770 hc        1 CYJ      0.036200
     47 HB          1.2430    5.7640    2.1350 h1        1 CYJ      0.044700
     48 HN1         1.8100    6.5600   -0.3890 hn        1 CYJ      0.331300
     49 HN2         1.6940    7.9390    0.4510 hn        1 CYJ      0.331300
@<TRIPOS>BOND
     1    1    2 1   
     2    2    3 1   
     3    2    4 1   
     4    4    5 1   
     5    4   26 1   
     6    4   27 1   
     7    5    6 1   
     8    5   28 1   
     9    5   29 1   
    10    6    7 1   
    11    6   10 1   
    12    6   30 1   
    13    7    8 1   
    14    7   31 1   
    15    7   32 1   
    16    8    9 1   
    17    8   33 1   
    18    9   15 1   
    19    9   34 1   
    20    9   35 1   
    21   10   11 1   
    22   10   15 1   
    23   10   36 1   
    24   11   12 1   
    25   11   37 1   
    26   11   38 1   
    27   12   13 1   
    28   12   14 1   
    29   15   16 2   
    30   16   17 1   
    31   17   18 1   
    32   17   39 1   
    33   17   40 1   
    34   18   19 1   
    35   18   41 1   
    36   18   42 1   
    37   19   20 1   
    38   19   43 1   
    39   19   44 1   
    40   20   21 1   
    41   20   45 1   
    42   20   46 1   
    43   21   22 1   
    44   21   23 1   
    45   21   47 1   
    46   22   48 1   
    47   22   49 1   
    48   23   24 1   
    49   23   25 1   
@<TRIPOS>SUBSTRUCTURE
     1 CYJ         1 TEMP              0 ****  ****    0 ROOT
