@<TRIPOS>MOLECULE
CYK
   33    32     1     0     0
SMALL
bcc


@<TRIPOS>ATOM
      1 C2          2.6160    0.1540   -0.1990 c3        1 CYK     -0.067400
      2 C5         -0.5080   -1.1160    0.3500 c         1 CYK      0.641100
      3 C4          1.2010    2.1770    0.2970 c         1 CYK      0.913600
      4 O3          0.0060   -1.8530    1.2260 o         1 CYK     -0.665100
      5 N1          0.1290   -0.0310   -0.1880 n         1 CYK     -0.514900
      6 C3          1.2820    0.6060    0.4140 c3        1 CYK     -0.047300
      7 O2          2.0750    2.8240    0.9300 o         1 CYK     -0.827300
      8 O1          0.2760    2.6820   -0.3990 o         1 CYK     -0.827300
      9 C1          3.0110   -1.2090    0.3020 c3        1 CYK      0.032700
     10 S           4.3910   -1.7840   -0.6720 sh        1 CYK     -0.438900
     11 C6         -1.8760   -1.4760   -0.2190 c3        1 CYK     -0.155400
     12 C7         -2.9120   -0.4290    0.1260 c3        1 CYK     -0.083400
     13 C8         -4.2870   -0.8510   -0.3470 c3        1 CYK     -0.076400
     14 C9         -5.3270    0.1980   -0.0150 c3        1 CYK     -0.083400
     15 C10        -6.6980   -0.2120   -0.4840 c3        1 CYK     -0.090100
     16 H2          2.5530    0.1540   -1.3180 hc        1 CYK      0.065700
     17 H2A         3.3860    0.9160    0.1010 hc        1 CYK      0.065700
     18 HN1        -0.4020    0.5890   -0.7690 hn        1 CYK      0.327500
     19 H3          1.3020    0.3560    1.5160 h1        1 CYK      0.058700
     20 H1          3.3080   -1.1590    1.3770 h1        1 CYK      0.066700
     21 H1A         2.1610   -1.9280    0.2150 h1        1 CYK      0.066700
     22 HS          4.5440   -2.9730   -0.1230 hs        1 CYK      0.182800
     23 H6         -1.8030   -1.5960   -1.3310 hc        1 CYK      0.054700
     24 H6A        -2.1730   -2.4670    0.2140 hc        1 CYK      0.054700
     25 H7         -2.9280   -0.2710    1.2370 hc        1 CYK      0.057700
     26 H7A        -2.6400    0.5540   -0.3430 hc        1 CYK      0.057700
     27 H8         -4.2670   -1.0220   -1.4560 hc        1 CYK      0.032700
     28 H8A        -4.5690   -1.8250    0.1330 hc        1 CYK      0.032700
     29 H9         -5.3420    0.3690    1.0940 hc        1 CYK      0.044200
     30 H9A        -5.0390    1.1720   -0.4930 hc        1 CYK      0.044200
     31 H10        -7.4490    0.5750   -0.2290 hc        1 CYK      0.026367
     32 H10A       -6.7080   -0.3620   -1.5910 hc        1 CYK      0.026367
     33 H10B       -7.0120   -1.1690    0.0010 hc        1 CYK      0.026367
@<TRIPOS>BOND
     1    1    6 1   
     2    1    9 1   
     3    1   16 1   
     4    1   17 1   
     5    2    4 2   
     6    2    5 1   
     7    2   11 1   
     8    3    6 1   
     9    3    7 1   
    10    3    8 1   
    11    5    6 1   
    12    5   18 1   
    13    6   19 1   
    14    9   10 1   
    15    9   20 1   
    16    9   21 1   
    17   10   22 1   
    18   11   12 1   
    19   11   23 1   
    20   11   24 1   
    21   12   13 1   
    22   12   25 1   
    23   12   26 1   
    24   13   14 1   
    25   13   27 1   
    26   13   28 1   
    27   14   15 1   
    28   14   29 1   
    29   14   30 1   
    30   15   31 1   
    31   15   32 1   
    32   15   33 1   
@<TRIPOS>SUBSTRUCTURE
     1 CYK         1 TEMP              0 ****  ****    0 ROOT
