@<TRIPOS>MOLECULE
CYK
   33    30     1     0     0
SMALL
bcc


@<TRIPOS>ATOM
      1 C2         -3.1510    1.0390   -2.0900 c3        1 CYK     -0.143000
      2 C5          0.0220    0.2050   -0.3610 c1        1 CYK      0.286000
      3 C4         -0.9830    2.0410   -2.7190 c1        1 CYK      0.328000
      4 O3          0.7290   -0.2430   -1.2420 o         1 CYK     -0.414000
      5 N1         -1.2250    0.7980   -0.6860 n3        1 CYK     -0.332000
      6 C3         -1.6490    0.8650   -2.0390 c2        1 CYK     -0.071000
      7 O2         -0.2400    1.8520   -3.7180 o         1 CYK     -0.565000
      8 O1         -1.1750    3.2080   -2.2890 o         1 CYK     -0.565000
      9 C1         -3.6730    0.5320   -3.4160 c3        1 CYK     -0.237000
     10 S          -5.4120    0.8580   -3.5300 sh        1 CYK     -0.116000
     11 C6          0.4680    0.1230    1.0820 c2        1 CYK     -0.184000
     12 C7          1.6680   -0.7910    1.1880 c3        1 CYK     -0.150000
     13 C8          2.2200   -0.7390    2.5950 c3        1 CYK     -0.158000
     14 C9          3.3830   -1.6990    2.7170 c3        1 CYK     -0.159000
     15 C10         3.9770   -1.5980    4.1050 c3        1 CYK     -0.209000
     16 H2         -3.5620    0.5310   -1.3620 hc        1 CYK      0.077500
     17 H2A        -3.3730    1.9870   -1.9920 hc        1 CYK      0.077500
     18 HN1        -1.7580    1.1320   -0.0240 hn        1 CYK      0.239000
     19 H3         -1.4010    0.0390   -2.5000 h4        1 CYK      0.103000
     20 H1         -3.2070    0.9890   -4.1450 h1        1 CYK      0.135500
     21 H1A        -3.5160   -0.4310   -3.4820 h1        1 CYK      0.135500
     22 HS         -5.8410    0.3620   -4.5080 hs        1 CYK      0.040000
     23 H6          0.7090    1.0160    1.4000 ha        1 CYK      0.093500
     24 H6A        -0.2610   -0.2320    1.6290 ha        1 CYK      0.093500
     25 H7          2.3570   -0.5000    0.5570 hc        1 CYK      0.094500
     26 H7A         1.4000   -1.7080    0.9770 hc        1 CYK      0.094500
     27 H8          1.5200   -0.9930    3.2290 hc        1 CYK      0.073500
     28 H8A         2.5250    0.1690    2.7920 hc        1 CYK      0.073500
     29 H9          4.0650   -1.4710    2.0540 hc        1 CYK      0.078500
     30 H9A         3.0700   -2.6120    2.5620 hc        1 CYK      0.078500
     31 H10         3.2630   -1.6800    4.7720 hc        1 CYK      0.066667
     32 H10A        4.6290   -2.3180    4.2350 hc        1 CYK      0.066667
     33 H10B        4.4220   -0.7310    4.2080 hc        1 CYK      0.066667
@<TRIPOS>BOND
     1    1    6 1   
     2    1    9 1   
     3    1   16 1   
     4    1   17 1   
     5    2    4 1   
     6    2    5 1   
     7    3    7 1   
     8    3    8 1   
     9    5    6 1   
    10    5   18 1   
    11    6   19 1   
    12    9   10 1   
    13    9   20 1   
    14    9   21 1   
    15   10   22 1   
    16   11   12 1   
    17   11   23 1   
    18   11   24 1   
    19   12   13 1   
    20   12   25 1   
    21   12   26 1   
    22   13   14 1   
    23   13   27 1   
    24   13   28 1   
    25   14   15 1   
    26   14   29 1   
    27   14   30 1   
    28   15   31 1   
    29   15   32 1   
    30   15   33 1   
@<TRIPOS>SUBSTRUCTURE
     1 CYK         1 TEMP              0 ****  ****    0 ROOT
