@<TRIPOS>MOLECULE
CYK
   34    33     1     0     0
SMALL
bcc


@<TRIPOS>ATOM
      1 C2          0.4070    0.1810   -0.2900 c3        1 CYK     -0.087400
      2 C5          2.3620   -1.4180    2.5160 c         1 CYK      0.562100
      3 C4          2.3650    1.3770    0.7580 c         1 CYK      0.930600
      4 O3          2.2850   -2.6260    2.3080 o         1 CYK     -0.482100
      5 N1          1.2600   -0.5790    1.9530 ny        1 CYK     -0.680800
      6 C3          1.6210   -0.0350    0.5990 c3        1 CYK     -0.056500
      7 O2          2.8610    1.8250   -0.2890 o         1 CYK     -0.765300
      8 O1          2.3660    1.8550    1.9230 o         1 CYK     -0.765300
      9 C1         -0.2770   -1.0890   -0.7230 c3        1 CYK      0.004700
     10 S          -1.3340   -1.6330    0.6070 sh        1 CYK     -0.417900
     11 C6          3.4210   -0.6880    3.2880 c3        1 CYK     -0.169400
     12 C7          4.6620   -1.5390    3.4500 c3        1 CYK     -0.076400
     13 C8          5.6940   -0.8100    4.2850 c3        1 CYK     -0.080400
     14 C9          6.9500   -1.6420    4.4410 c3        1 CYK     -0.078400
     15 C10         7.9810   -0.9260    5.2740 c3        1 CYK     -0.094100
     16 H2          0.7960    0.7250   -1.2010 hc        1 CYK      0.099700
     17 H2A        -0.3290    0.8680    0.2070 hc        1 CYK      0.099700
     18 HN1         0.3770   -1.1260    1.8860 hn        1 CYK      0.469300
     19 H3          2.3350   -0.7530    0.1110 hx        1 CYK      0.089700
     20 H1         -0.9080   -0.8950   -1.6250 h1        1 CYK      0.078700
     21 H1A         0.4660   -1.8800   -0.9830 h1        1 CYK      0.078700
     22 HS         -1.3790   -2.9310    0.3530 hs        1 CYK      0.227800
     23 H6          3.6710    0.2900    2.7720 hc        1 CYK      0.121700
     24 H6A         2.9920   -0.4230    4.2940 hc        1 CYK      0.121700
     25 H7          5.0890   -1.7760    2.4400 hc        1 CYK      0.056200
     26 H7A         4.3940   -2.5150    3.9340 hc        1 CYK      0.056200
     27 H8          5.9480    0.1690    3.8000 hc        1 CYK      0.050200
     28 H8A         5.2680   -0.5800    5.2960 hc        1 CYK      0.050200
     29 H9          7.3760   -1.8690    3.4280 hc        1 CYK      0.041200
     30 H9A         6.6920   -2.6240    4.9190 hc        1 CYK      0.041200
     31 H10         8.8990   -1.5530    5.3760 hc        1 CYK      0.036367
     32 H10A        7.5840   -0.7130    6.2970 hc        1 CYK      0.036367
     33 H10B        8.2670    0.0450    4.8010 hc        1 CYK      0.036367
     34 H12         1.1350    0.2550    2.5600 hn        1 CYK      0.469300
@<TRIPOS>BOND
     1    1    6 1   
     2    1    9 1   
     3    1   16 1   
     4    1   17 1   
     5    2    4 2   
     6    2    5 1   
     7    2   11 1   
     8    3    6 1   
     9    3    7 1   
    10    3    8 1   
    11    5    6 1   
    12    5   18 1   
    13    5   34 1   
    14    6   19 1   
    15    9   10 1   
    16    9   20 1   
    17    9   21 1   
    18   10   22 1   
    19   11   12 1   
    20   11   23 1   
    21   11   24 1   
    22   12   13 1   
    23   12   25 1   
    24   12   26 1   
    25   13   14 1   
    26   13   27 1   
    27   13   28 1   
    28   14   15 1   
    29   14   29 1   
    30   14   30 1   
    31   15   31 1   
    32   15   32 1   
    33   15   33 1   
@<TRIPOS>SUBSTRUCTURE
     1 CYK         1 TEMP              0 ****  ****    0 ROOT
