@<TRIPOS>MOLECULE
CYK
   34    33     1     0     0
SMALL
bcc


@<TRIPOS>ATOM
      1 C2          0.4290    0.1870   -0.3070 c3        1 CYK     -0.087400
      2 C5          2.3540   -1.4040    2.5230 c         1 CYK      0.562100
      3 C4          2.3960    1.3720    0.7380 c         1 CYK      0.930600
      4 O3          2.2660   -2.6130    2.3260 o         1 CYK     -0.482100
      5 N1          1.2640   -0.5590    1.9470 n4        1 CYK     -0.680800
      6 C3          1.6370   -0.0330    0.5900 c3        1 CYK     -0.056500
      7 O2          2.9010    1.8040   -0.3120 o         1 CYK     -0.765300
      8 O1          2.3970    1.8610    1.8980 o         1 CYK     -0.765300
      9 C1         -0.2670   -1.0780   -0.7300 c3        1 CYK      0.004700
     10 S          -1.3360   -1.5970    0.6010 sh        1 CYK     -0.417900
     11 C6          3.4170   -0.6780    3.2940 c3        1 CYK     -0.169400
     12 C7          4.6490   -1.5410    3.4700 c3        1 CYK     -0.076400
     13 C8          5.6840   -0.8160    4.3040 c3        1 CYK     -0.080400
     14 C9          6.9300   -1.6590    4.4730 c3        1 CYK     -0.078400
     15 C10         7.9640   -0.9470    5.3070 c3        1 CYK     -0.094100
     16 H2         -0.3010    0.8880    0.1800 hc        1 CYK      0.099700
     17 H2A         0.8280    0.7180   -1.2220 hc        1 CYK      0.099700
     18 HN1         0.3750   -1.0970    1.8810 hn        1 CYK      0.469300
     19 H3          2.3450   -0.7640    0.1110 hx        1 CYK      0.089700
     20 H1         -0.8930   -0.8870   -1.6360 h1        1 CYK      0.078700
     21 H1A         0.4670   -1.8800   -0.9800 h1        1 CYK      0.078700
     22 HS         -1.3950   -2.8980    0.3600 hs        1 CYK      0.227800
     23 H6          3.6800    0.2920    2.7700 hc        1 CYK      0.121200
     24 H6A         2.9870   -0.4000    4.2950 hc        1 CYK      0.121200
     25 H7          4.3680   -2.5100    3.9610 hc        1 CYK      0.056200
     26 H7A         5.0790   -1.7910    2.4640 hc        1 CYK      0.056200
     27 H8          5.2550   -0.5730    5.3110 hc        1 CYK      0.050200
     28 H8A         5.9500    0.1570    3.8120 hc        1 CYK      0.050200
     29 H9          6.6600   -2.6340    4.9570 hc        1 CYK      0.041200
     30 H9A         7.3590   -1.8980    3.4640 hc        1 CYK      0.041200
     31 H10         8.2620    0.0170    4.8280 hc        1 CYK      0.036367
     32 H10A        8.8760   -1.5830    5.4180 hc        1 CYK      0.036367
     33 H10B        7.5640   -0.7230    6.3250 hc        1 CYK      0.036367
     34 H12         1.1450    0.2820    2.5450 hn        1 CYK      0.469300
@<TRIPOS>BOND
     1    1    6 1   
     2    1    9 1   
     3    1   16 1   
     4    1   17 1   
     5    2    4 2   
     6    2    5 1   
     7    2   11 1   
     8    3    6 1   
     9    3    7 1   
    10    3    8 1   
    11    5    6 1   
    12    5   18 1   
    13    5   34 1   
    14    6   19 1   
    15    9   10 1   
    16    9   20 1   
    17    9   21 1   
    18   10   22 1   
    19   11   12 1   
    20   11   23 1   
    21   11   24 1   
    22   12   13 1   
    23   12   25 1   
    24   12   26 1   
    25   13   14 1   
    26   13   27 1   
    27   13   28 1   
    28   14   15 1   
    29   14   29 1   
    30   14   30 1   
    31   15   31 1   
    32   15   32 1   
    33   15   33 1   
@<TRIPOS>SUBSTRUCTURE
     1 CYK         1 TEMP              0 ****  ****    0 ROOT
