@<TRIPOS>MOLECULE
CYK
   34    33     1     0     0
SMALL
bcc


@<TRIPOS>ATOM
      1 C2          0.4350    0.2000   -0.3090 c3        1 CYK     -0.087400
      2 C5          2.3270   -1.3520    2.5660 c         1 CYK      0.562100
      3 C4          2.4680    1.3390    0.6580 c         1 CYK      0.930600
      4 O3          2.1810   -2.5630    2.4250 o         1 CYK     -0.482100
      5 N1          1.2680   -0.4840    1.9660 n4        1 CYK     -0.680800
      6 C3          1.6450   -0.0350    0.5820 c3        1 CYK     -0.056500
      7 O2          2.9770    1.7010   -0.4150 o         1 CYK     -0.765300
      8 O1          2.5080    1.8780    1.7960 o         1 CYK     -0.765300
      9 C1         -0.3230   -1.0500   -0.6660 c3        1 CYK      0.004700
     10 S          -1.3950   -1.4610    0.6990 sh        1 CYK     -0.417900
     11 C6          3.4330   -0.6420    3.2890 c3        1 CYK     -0.169400
     12 C7          4.6270   -1.5520    3.4880 c3        1 CYK     -0.076400
     13 C8          5.7070   -0.8390    4.2730 c3        1 CYK     -0.080400
     14 C9          6.9160   -1.7300    4.4640 c3        1 CYK     -0.078400
     15 C10         7.9950   -1.0290    5.2490 c3        1 CYK     -0.094100
     16 H2          0.8440    0.6710   -1.2500 hc        1 CYK      0.099700
     17 H2A        -0.2560    0.9540    0.1560 hc        1 CYK      0.099700
     18 HN1         0.3550   -0.9830    1.9360 hn        1 CYK      0.469300
     19 H3          2.3120   -0.8180    0.1290 hx        1 CYK      0.089700
     20 H1         -0.9520   -0.8710   -1.5730 h1        1 CYK      0.078700
     21 H1A         0.3710   -1.8950   -0.8880 h1        1 CYK      0.078700
     22 HS         -1.5160   -2.7670    0.5170 hs        1 CYK      0.227800
     23 H6          3.7320    0.2900    2.7200 hc        1 CYK      0.121700
     24 H6A         3.0310   -0.3010    4.2830 hc        1 CYK      0.121700
     25 H7          4.3110   -2.4840    4.0270 hc        1 CYK      0.056200
     26 H7A         5.0290   -1.8670    2.4890 hc        1 CYK      0.056200
     27 H8          6.0100    0.0970    3.7330 hc        1 CYK      0.050200
     28 H8A         5.3050   -0.5300    5.2740 hc        1 CYK      0.050200
     29 H9          7.3170   -2.0350    3.4620 hc        1 CYK      0.041200
     30 H9A         6.6100   -2.6680    4.9970 hc        1 CYK      0.041200
     31 H10         7.6220   -0.7400    6.2620 hc        1 CYK      0.036367
     32 H10A        8.8780   -1.7010    5.3770 hc        1 CYK      0.036367
     33 H10B        8.3290   -0.1030    4.7210 hc        1 CYK      0.036367
     34 H12         1.1960    0.3870    2.5270 hn        1 CYK      0.469300
@<TRIPOS>BOND
     1    1    6 1   
     2    1    9 1   
     3    1   16 1   
     4    1   17 1   
     5    2    4 2   
     6    2    5 1   
     7    2   11 1   
     8    3    6 1   
     9    3    7 1   
    10    3    8 1   
    11    5    6 1   
    12    5   18 1   
    13    5   34 1   
    14    6   19 1   
    15    9   10 1   
    16    9   20 1   
    17    9   21 1   
    18   10   22 1   
    19   11   12 1   
    20   11   23 1   
    21   11   24 1   
    22   12   13 1   
    23   12   25 1   
    24   12   26 1   
    25   13   14 1   
    26   13   27 1   
    27   13   28 1   
    28   14   15 1   
    29   14   29 1   
    30   14   30 1   
    31   15   31 1   
    32   15   32 1   
    33   15   33 1   
@<TRIPOS>SUBSTRUCTURE
     1 CYK         1 TEMP              0 ****  ****    0 ROOT
