@<TRIPOS>MOLECULE
CYL
   26    26     1     0     0
SMALL
bcc


@<TRIPOS>ATOM
      1 C1         -0.0260    0.0080   -0.0490 c3        1 CYL      0.179700
      2 C2          1.5170   -0.0780   -0.0370 c3        1 CYL      0.130100
      3 C3          2.0580   -0.0160    1.3990 c3        1 CYL      0.115100
      4 C4          1.6670    1.3260    2.0460 c3        1 CYL      0.122300
      5 C5          0.2080    1.6270    1.8470 c2        1 CYL     -0.045400
      6 C6         -0.3560    2.6600    2.7720 c3        1 CYL      0.150600
      7 N1         -0.6550   -1.3260    0.2860 n4        1 CYL     -0.838600
      8 O2          1.8800   -1.2970   -0.6590 oh        1 CYL     -0.631800
      9 O3          3.4620   -0.1270    1.2780 oh        1 CYL     -0.594800
     10 O4          2.0090    1.1860    3.4150 oh        1 CYL     -0.585800
     11 C7         -0.5320    1.0520    0.8880 c2        1 CYL     -0.253200
     12 O6         -1.7350    2.8260    2.4910 oh        1 CYL     -0.602800
     13 H1         -0.3560    0.2430   -1.1080 hx        1 CYL      0.124700
     14 H2          1.9170    0.7930   -0.6320 h1        1 CYL      0.103700
     15 H3          1.6640   -0.8670    2.0200 h1        1 CYL      0.055700
     16 H4          2.2720    2.1550    1.5720 h1        1 CYL      0.088700
     17 H61        -0.2230    2.3110    3.8360 h1        1 CYL      0.062700
     18 H62         0.1940    3.6310    2.6270 h1        1 CYL      0.062700
     19 HN11       -0.2510   -2.0450   -0.3290 hn        1 CYL      0.463800
     20 HN12       -0.4530   -1.5700    1.2600 hn        1 CYL      0.463800
     21 HO2         2.8490   -1.3540   -0.6350 ho        1 CYL      0.472000
     22 HO3         3.8300   -0.0640    2.1730 ho        1 CYL      0.448000
     23 HO4         2.0900    2.0730    3.7900 ho        1 CYL      0.428000
     24 H7         -1.5810    1.3670    0.7310 ha        1 CYL      0.183000
     25 HO6        -2.0490    3.5480    3.0520 ho        1 CYL      0.433000
     26 H13        -1.6670   -1.2760    0.1550 hn        1 CYL      0.463800
@<TRIPOS>BOND
     1    1    2 1   
     2    1    7 1   
     3    1   11 1   
     4    1   13 1   
     5    2    3 1   
     6    2    8 1   
     7    2   14 1   
     8    3    4 1   
     9    3    9 1   
    10    3   15 1   
    11    4    5 1   
    12    4   10 1   
    13    4   16 1   
    14    5    6 1   
    15    5   11 2   
    16    6   12 1   
    17    6   17 1   
    18    6   18 1   
    19    7   19 1   
    20    7   20 1   
    21    7   26 1   
    22    8   21 1   
    23    9   22 1   
    24   10   23 1   
    25   11   24 1   
    26   12   25 1   
@<TRIPOS>SUBSTRUCTURE
     1 CYL         1 TEMP              0 ****  ****    0 ROOT
