@<TRIPOS>MOLECULE
CYL
   26    26     1     0     0
SMALL
bcc


@<TRIPOS>ATOM
      1 C1         -0.0300    0.0040   -0.0520 c3        1 CYL      0.179700
      2 C2          1.5130   -0.0870   -0.0380 c3        1 CYL      0.130100
      3 C3          2.0530   -0.0220    1.3990 c3        1 CYL      0.115100
      4 C4          1.6650    1.3230    2.0420 c3        1 CYL      0.122300
      5 C5          0.2070    1.6290    1.8400 c2        1 CYL     -0.045400
      6 C6         -0.3550    2.6660    2.7600 c3        1 CYL      0.150600
      7 N1         -0.6630   -1.3270    0.2860 nz        1 CYL     -0.838600
      8 O2          1.8740   -1.3090   -0.6560 oh        1 CYL     -0.631800
      9 O3          3.4560   -0.1380    1.2810 oh        1 CYL     -0.594800
     10 O4          2.0030    1.1850    3.4110 oh        1 CYL     -0.585800
     11 C7         -0.5330    1.0530    0.8800 c2        1 CYL     -0.253200
     12 O6         -1.7330    2.8360    2.4760 oh        1 CYL     -0.602800
     13 H1         -0.3570    0.2370   -1.1130 hx        1 CYL      0.124700
     14 H2          1.9170    0.7810   -0.6350 h1        1 CYL      0.103700
     15 H3          1.6540   -0.8710    2.0220 h1        1 CYL      0.055700
     16 H4          2.2730    2.1490    1.5660 h1        1 CYL      0.088700
     17 H61        -0.2250    2.3200    3.8250 h1        1 CYL      0.062700
     18 H62         0.1990    3.6350    2.6130 h1        1 CYL      0.062700
     19 HN11       -0.4630   -1.5680    1.2610 hn        1 CYL      0.463800
     20 HN12       -1.6750   -1.2740    0.1530 hn        1 CYL      0.463800
     21 HO2         2.8420   -1.3690   -0.6290 ho        1 CYL      0.472000
     22 HO3         3.8230   -0.0740    2.1760 ho        1 CYL      0.448000
     23 HO4         2.0870    2.0730    3.7840 ho        1 CYL      0.428000
     24 H7         -1.5810    1.3710    0.7210 ha        1 CYL      0.183000
     25 HO6        -2.0460    3.5600    3.0340 ho        1 CYL      0.433000
     26 H13        -0.2610   -2.0490   -0.3260 hn        1 CYL      0.463800
@<TRIPOS>BOND
     1    1    2 1   
     2    1    7 1   
     3    1   11 1   
     4    1   13 1   
     5    2    3 1   
     6    2    8 1   
     7    2   14 1   
     8    3    4 1   
     9    3    9 1   
    10    3   15 1   
    11    4    5 1   
    12    4   10 1   
    13    4   16 1   
    14    5    6 1   
    15    5   11 2   
    16    6   12 1   
    17    6   17 1   
    18    6   18 1   
    19    7   19 1   
    20    7   20 1   
    21    7   26 1   
    22    8   21 1   
    23    9   22 1   
    24   10   23 1   
    25   11   24 1   
    26   12   25 1   
@<TRIPOS>SUBSTRUCTURE
     1 CYL         1 TEMP              0 ****  ****    0 ROOT
