@<TRIPOS>MOLECULE
CYL
   25    25     1     0     0
SMALL
bcc


@<TRIPOS>ATOM
      1 C1         -1.7840    0.1160   -0.5010 c3        1 CYL      0.197700
      2 C2         -0.6530    0.6380   -1.4290 c3        1 CYL      0.107100
      3 C3          0.6650   -0.0830   -1.1200 c3        1 CYL      0.114100
      4 C4          1.1190    0.2680    0.3080 c3        1 CYL      0.148300
      5 C5         -0.0070    0.1420    1.2880 c2        1 CYL     -0.179400
      6 C6          0.4150    0.1140    2.7220 c3        1 CYL      0.170600
      7 N1         -2.3720   -1.1560   -0.8760 n3        1 CYL     -0.886800
      8 O2         -1.0500    0.4130   -2.7700 oh        1 CYL     -0.605800
      9 O3          1.6150    0.3780   -2.0680 oh        1 CYL     -0.612800
     10 O4          2.2030   -0.6140    0.5760 oh        1 CYL     -0.604800
     11 C7         -1.2940    0.0940    0.9200 c2        1 CYL     -0.104200
     12 O6         -0.6980    0.4180    3.5490 oh        1 CYL     -0.592800
     13 H1         -2.6200    0.8800   -0.5660 h1        1 CYL      0.080700
     14 H2         -0.5160    1.7430   -1.2630 h1        1 CYL      0.053700
     15 H3          0.5450   -1.1970   -1.2200 h1        1 CYL      0.062700
     16 H4          1.5010    1.3310    0.3240 h1        1 CYL      0.055700
     17 H61         0.8150   -0.9090    2.9720 h1        1 CYL      0.028200
     18 H62         1.2270    0.8750    2.8990 h1        1 CYL      0.028200
     19 HN11       -2.6870   -1.1070   -1.8270 hn        1 CYL      0.356300
     20 HN12       -1.6980   -1.8930   -0.7980 hn        1 CYL      0.356300
     21 HO2        -0.2950    0.6480   -3.3260 ho        1 CYL      0.427000
     22 HO3         2.4500   -0.0580   -1.8540 ho        1 CYL      0.424000
     23 HO4         2.5370   -0.4000    1.4550 ho        1 CYL      0.406000
     24 H7         -2.0920    0.0320    1.6820 ha        1 CYL      0.161000
     25 HO6        -0.4140    0.2570    4.4560 ho        1 CYL      0.405000
@<TRIPOS>BOND
     1    1    2 1   
     2    1    7 1   
     3    1   11 1   
     4    1   13 1   
     5    2    3 1   
     6    2    8 1   
     7    2   14 1   
     8    3    4 1   
     9    3    9 1   
    10    3   15 1   
    11    4    5 1   
    12    4   10 1   
    13    4   16 1   
    14    5    6 1   
    15    5   11 2   
    16    6   12 1   
    17    6   17 1   
    18    6   18 1   
    19    7   19 1   
    20    7   20 1   
    21    8   21 1   
    22    9   22 1   
    23   10   23 1   
    24   11   24 1   
    25   12   25 1   
@<TRIPOS>SUBSTRUCTURE
     1 CYL         1 TEMP              0 ****  ****    0 ROOT
