@<TRIPOS>MOLECULE
CYL
   26    26     1     0     0
SMALL
bcc


@<TRIPOS>ATOM
      1 C1         -0.0250    0.0020   -0.0240 c3        1 CYL      0.185700
      2 C2          1.5190   -0.0040   -0.0210 c3        1 CYL      0.094100
      3 C3          2.0800    0.1320    1.4010 c3        1 CYL      0.062100
      4 C4          1.5980    1.4340    2.0630 c3        1 CYL      0.134300
      5 C5          0.1360    1.6870    1.8220 c2        1 CYL     -0.001400
      6 C6         -0.4650    2.7330    2.7070 c3        1 CYL      0.153600
      7 N1         -0.5850   -1.3440    0.3790 n4        1 CYL     -0.839600
      8 O2          1.9380   -1.2200   -0.6160 oh        1 CYL     -0.625800
      9 O3          3.4890    0.0550    1.3650 oh        1 CYL     -0.575800
     10 O4          1.8010    1.3590    3.4640 oh        1 CYL     -0.578800
     11 C7         -0.5710    1.0620    0.8680 c2        1 CYL     -0.269200
     12 O6         -1.8600    2.7960    2.4590 oh        1 CYL     -0.611800
     13 H1         -0.3740    0.1700   -1.0910 hx        1 CYL      0.124700
     14 H2          1.8610    0.8630   -0.6570 h1        1 CYL      0.091700
     15 H3          1.7830   -0.7530    2.0340 h1        1 CYL      0.097700
     16 H4          2.1810    2.3070    1.6410 h1        1 CYL      0.072700
     17 H61        -0.2700    2.4580    3.7830 h1        1 CYL      0.075700
     18 H62         0.0170    3.7260    2.4860 h1        1 CYL      0.075700
     19 HN11       -0.1340   -2.0730   -0.1890 hn        1 CYL      0.463800
     20 HN12       -1.5970   -1.3550    0.2300 hn        1 CYL      0.463800
     21 HO2         2.8950   -1.3000   -0.4710 ho        1 CYL      0.464000
     22 HO3         3.8310    0.8570    0.9460 ho        1 CYL      0.420000
     23 HO4         2.7460    1.1970    3.6030 ho        1 CYL      0.437000
     24 H7         -1.6250    1.3470    0.6870 ha        1 CYL      0.188000
     25 HO6        -2.2130    3.4840    3.0380 ho        1 CYL      0.433000
     26 H13        -0.3890   -1.5200    1.3680 hn        1 CYL      0.463800
@<TRIPOS>BOND
     1    1    2 1   
     2    1    7 1   
     3    1   11 1   
     4    1   13 1   
     5    2    3 1   
     6    2    8 1   
     7    2   14 1   
     8    3    4 1   
     9    3    9 1   
    10    3   15 1   
    11    4    5 1   
    12    4   10 1   
    13    4   16 1   
    14    5    6 1   
    15    5   11 2   
    16    6   12 1   
    17    6   17 1   
    18    6   18 1   
    19    7   19 1   
    20    7   20 1   
    21    7   26 1   
    22    8   21 1   
    23    9   22 1   
    24   10   23 1   
    25   11   24 1   
    26   12   25 1   
@<TRIPOS>SUBSTRUCTURE
     1 CYL         1 TEMP              0 ****  ****    0 ROOT
