@<TRIPOS>MOLECULE
CYL
   25    25     1     0     0
SMALL
bcc


@<TRIPOS>ATOM
      1 C1         -0.7880    0.7810   -1.2820 c3        1 CYL      0.162700
      2 C2          0.8610    0.8170   -1.2310 c3        1 CYL      0.156100
      3 C3          1.3870    0.8420   -0.0440 c3        1 CYL      0.109100
      4 C4          0.9700   -0.4010    0.9480 c3        1 CYL      0.160300
      5 C5         -0.4890   -0.5990    1.0120 c2        1 CYL     -0.154400
      6 C6         -1.0760   -1.5300    2.0470 c3        1 CYL      0.169600
      7 N1         -1.2630    0.6760   -2.6740 n3        1 CYL     -0.903800
      8 O2          1.3780   -0.4100   -1.9470 oh        1 CYL     -0.614800
      9 O3          0.9750    2.1350    0.6250 oh        1 CYL     -0.592800
     10 O4          1.6570   -1.6190    0.5910 oh        1 CYL     -0.598800
     11 C7         -1.3490   -0.2690   -0.4360 c2        1 CYL     -0.156200
     12 O6         -2.0720   -0.8620    2.7610 oh        1 CYL     -0.604800
     13 H1         -1.1600    1.6520   -1.0250 h1        1 CYL      0.090700
     14 H2          1.1670    1.6160   -1.7220 h1        1 CYL      0.064700
     15 H3          2.3740    0.8440   -0.1430 h1        1 CYL      0.062700
     16 H4          1.3270   -0.2470    1.8440 h1        1 CYL      0.070700
     17 H61        -1.4690   -2.3350    1.5940 h1        1 CYL      0.038700
     18 H62        -0.3520   -1.8230    2.6790 h1        1 CYL      0.038700
     19 HN11       -2.1030    0.3530   -2.6800 hn        1 CYL      0.351300
     20 HN12       -1.2540    1.5110   -3.0660 hn        1 CYL      0.351300
     21 HO2         1.8850   -0.1590   -2.6440 ho        1 CYL      0.418000
     22 HO3         1.7120    2.5850    0.8890 ho        1 CYL      0.408000
     23 HO4         2.3880   -1.6780    1.0390 ho        1 CYL      0.425000
     24 H7         -2.3170   -0.4950   -0.5020 ha        1 CYL      0.144000
     25 HO6        -2.3890   -1.3850    3.3670 ho        1 CYL      0.403000
@<TRIPOS>BOND
     1    1    2 1   
     2    1    7 1   
     3    1   11 1   
     4    1   13 1   
     5    2    3 1   
     6    2    8 1   
     7    2   14 1   
     8    3    4 1   
     9    3    9 1   
    10    3   15 1   
    11    4    5 1   
    12    4   10 1   
    13    4   16 1   
    14    5    6 1   
    15    5   11 2   
    16    6   12 1   
    17    6   17 1   
    18    6   18 1   
    19    7   19 1   
    20    7   20 1   
    21    8   21 1   
    22    9   22 1   
    23   10   23 1   
    24   11   24 1   
    25   12   25 1   
@<TRIPOS>SUBSTRUCTURE
     1 CYL         1 TEMP              0 ****  ****    0 ROOT
