@<TRIPOS>MOLECULE
CYM
   16    15     1     0     0
SMALL
bcc


@<TRIPOS>ATOM
      1 N          -2.2170    0.0590   -0.9990 n3        1 CYM     -0.883800
      2 CA         -0.8020    0.2060   -0.9870 c3        1 CYM      0.022500
      3 CB         -0.2970    0.1040    0.4330 c3        1 CYM      0.029700
      4 SG          1.4660   -0.0890    0.4210 ss        1 CYM     -0.339200
      5 CD          2.1060    0.2230    2.0450 c3        1 CYM     -0.040000
      6 C          -0.1750   -0.8840   -1.8250 c         1 CYM      0.890600
      7 O           0.7400   -0.6030   -2.6420 o         1 CYM     -0.837300
      8 OXT        -0.5670   -2.0750   -1.7050 o         1 CYM     -0.837300
      9 HN1        -2.5880    0.6220   -0.3790 hn        1 CYM      0.332300
     10 HN2        -2.5390    0.2670   -1.8310 hn        1 CYM      0.332300
     11 HA         -0.5620    1.0790   -1.3570 h1        1 CYM      0.058700
     12 HB1        -0.7060   -0.6690    0.8710 h1        1 CYM      0.067700
     13 HB2        -0.5320    0.9180    0.9220 h1        1 CYM      0.067700
     14 HD1         3.0830    0.1480    2.0310 h1        1 CYM      0.045033
     15 HD2         1.7370   -0.4320    2.6730 h1        1 CYM      0.045033
     16 HD3         1.8510    1.1260    2.3280 h1        1 CYM      0.045033
@<TRIPOS>BOND
     1    1    2 1   
     2    1    9 1   
     3    1   10 1   
     4    2    3 1   
     5    2    6 1   
     6    2   11 1   
     7    3    4 1   
     8    3   12 1   
     9    3   13 1   
    10    4    5 1   
    11    5   14 1   
    12    5   15 1   
    13    5   16 1   
    14    6    7 1   
    15    6    8 1   
@<TRIPOS>SUBSTRUCTURE
     1 CYM         1 TEMP              0 ****  ****    0 ROOT
