@<TRIPOS>MOLECULE
CYM
   16    15     1     0     0
SMALL
bcc


@<TRIPOS>ATOM
      1 N          -1.9190    0.0680   -0.5090 n3        1 CYM     -0.883800
      2 CA         -0.4790    0.2830   -0.4550 c3        1 CYM      0.022500
      3 CB          0.2100   -0.4810    0.6630 c3        1 CYM      0.029700
      4 SG         -0.2290    0.1890    2.2550 ss        1 CYM     -0.339200
      5 CD          1.1370   -0.3120    3.2320 c3        1 CYM     -0.040000
      6 C           0.2740   -0.0480   -1.7960 c         1 CYM      0.890600
      7 O          -0.4280   -0.2990   -2.8150 o         1 CYM     -0.837300
      8 OXT         1.5350   -0.0230   -1.7780 o         1 CYM     -0.837300
      9 HN1        -2.0970   -0.9210   -0.5200 hn        1 CYM      0.332300
     10 HN2        -2.2360    0.4220   -1.3980 hn        1 CYM      0.332300
     11 HA         -0.3270    1.3880   -0.2800 h1        1 CYM      0.058700
     12 HB1         1.3150   -0.3890    0.5070 h1        1 CYM      0.067700
     13 HB2        -0.0590   -1.5640    0.6390 h1        1 CYM      0.067700
     14 HD1         0.9980    0.1400    4.2390 h1        1 CYM      0.045033
     15 HD2         1.1880   -1.4190    3.3350 h1        1 CYM      0.045033
     16 HD3         2.1020    0.0410    2.8030 h1        1 CYM      0.045033
@<TRIPOS>BOND
     1    1    2 1   
     2    1    9 1   
     3    1   10 1   
     4    2    3 1   
     5    2    6 1   
     6    2   11 1   
     7    3    4 1   
     8    3   12 1   
     9    3   13 1   
    10    4    5 1   
    11    5   14 1   
    12    5   15 1   
    13    5   16 1   
    14    6    7 1   
    15    6    8 1   
@<TRIPOS>SUBSTRUCTURE
     1 CYM         1 TEMP              0 ****  ****    0 ROOT
