@<TRIPOS>MOLECULE
CYO
    3     2     1     0     0
SMALL
bcc


@<TRIPOS>ATOM
      1 OD1         0.3240    1.1870    0.0050 o         1 CYO     -0.277000
      2 OD2         0.2590   -0.2030   -0.4590 os        1 CYO      0.553000
      3 OD3        -0.5830   -0.9840    0.4540 o         1 CYO     -0.277000
@<TRIPOS>BOND
     1    1    2 1   
     2    2    3 1   
@<TRIPOS>SUBSTRUCTURE
     1 CYO         1 TEMP              0 ****  ****    0 ROOT
