@<TRIPOS>MOLECULE
CYP
   63    65     1     0     0
SMALL
bcc


@<TRIPOS>ATOM
      1 N1         -0.5580    0.6610   -0.8660 n4        1 CYP     -0.817600
      2 CA1         0.6690   -0.0920   -1.2360 c3        1 CYP     -0.105500
      3 C1          1.1800   -0.9720    0.0450 c         1 CYP      0.951600
      4 O11         0.3550   -1.0200    0.9830 o         1 CYP     -0.738300
      5 CB1         1.8100    0.7750   -1.7290 c3        1 CYP     -0.082400
      6 CG1         1.6900    1.0190   -3.2240 c3        1 CYP     -0.179400
      7 CD1         2.4470    2.2420   -3.6390 c         1 CYP      0.571100
      8 OE1         3.2370    2.9330   -3.0210 o         1 CYP     -0.418100
      9 O12         2.2970   -1.4820   -0.1190 o         1 CYP     -0.738300
     10 N2          2.1560    2.6810   -5.0790 n4        1 CYP     -0.722800
     11 CA2         2.4580    4.1060   -5.3740 c3        1 CYP      0.063500
     12 C2          1.4740    5.1390   -4.8200 c         1 CYP      0.519100
     13 O2          1.8340    6.0960   -4.1510 o         1 CYP     -0.364100
     14 CB2         2.6480    4.3590   -6.8740 c3        1 CYP     -0.082300
     15 SG2         3.9860    3.3570   -7.4130 ss        1 CYP     -0.249200
     16 CA4         3.3650    2.2420   -8.6850 c3        1 CYP      0.025700
     17 CB4         1.9250    1.9230   -8.5950 ca        1 CYP     -0.137300
     18 CG4         1.0040    2.6760   -9.3350 ca        1 CYP     -0.133000
     19 CD4        -0.3490    2.3460   -9.3250 ca        1 CYP     -0.128000
     20 CE4        -0.7910    1.2510   -8.5820 ca        1 CYP     -0.098000
     21 CZ4         0.1180    0.4910   -7.8470 ca        1 CYP     -0.102000
     22 CH4         1.4800    0.8210   -7.8330 ca        1 CYP     -0.048000
     23 CH5         2.4570    0.0130   -7.1070 ca        1 CYP     -0.080000
     24 CZ5         2.0710   -0.8700   -6.0880 ca        1 CYP     -0.147000
     25 CE5         3.0130   -1.6770   -5.4510 ca        1 CYP     -0.121000
     26 CD5         4.3550   -1.6150   -5.8260 ca        1 CYP     -0.103000
     27 CG5         4.7550   -0.7340   -6.8300 ca        1 CYP     -0.096000
     28 CB5         3.8170    0.0850   -7.4650 ca        1 CYP     -0.129300
     29 CA5         4.2840    1.0170   -8.5460 c3        1 CYP      0.204400
     30 O5          4.4200    0.3730   -9.7950 oh        1 CYP     -0.557800
     31 N3          0.0220    5.0580   -5.1680 n4        1 CYP     -0.656800
     32 CA3        -0.8150    4.7300   -3.9670 c3        1 CYP     -0.041200
     33 C3         -0.8710    3.1930   -3.7540 c         1 CYP      0.922600
     34 O31        -0.6390    2.4770   -4.7810 o         1 CYP     -0.802800
     35 O32        -1.0900    2.7640   -2.6050 o         1 CYP     -0.802800
     36 HN11       -1.2190    0.7240   -1.6410 hn        1 CYP      0.455133
     37 HN12       -0.9760    0.1550   -0.0560 hn        1 CYP      0.455133
     38 HA1         0.3820   -0.8570   -2.0080 hx        1 CYP      0.086700
     39 HB11        2.7660    0.2140   -1.5070 hc        1 CYP      0.103200
     40 HB12        1.8670    1.7460   -1.1710 hc        1 CYP      0.103200
     41 HG11        2.0990    0.1340   -3.7930 hc        1 CYP      0.124700
     42 HG12        0.6010    1.1360   -3.5100 hc        1 CYP      0.124700
     43 HN2         1.1660    2.4410   -5.3020 hn        1 CYP      0.498800
     44 HA2         3.4500    4.3460   -4.8470 hx        1 CYP      0.182700
     45 HB21        2.9360    5.4340   -7.0140 h1        1 CYP      0.113200
     46 HB22        1.7140    4.1630   -7.4590 h1        1 CYP      0.113200
     47 HA4         3.5890    2.7260   -9.6770 h1        1 CYP      0.126700
     48 HG4         1.3590    3.5090   -9.9630 ha        1 CYP      0.147000
     49 HD4        -1.0630    2.9290   -9.9280 ha        1 CYP      0.155000
     50 HE4        -1.8570    0.9720   -8.5890 ha        1 CYP      0.160000
     51 HZ4        -0.2460   -0.3900   -7.2940 ha        1 CYP      0.158000
     52 HZ5         1.0110   -0.9530   -5.7980 ha        1 CYP      0.144000
     53 HE5         2.6940   -2.3780   -4.6620 ha        1 CYP      0.164000
     54 HD5         5.0970   -2.2670   -5.3350 ha        1 CYP      0.166000
     55 HG5         5.8130   -0.6920   -7.1390 ha        1 CYP      0.162000
     56 HA5         5.3360    1.3770   -8.3200 h1        1 CYP      0.105700
     57 HO5         3.5920   -0.0870   -9.9880 ho        1 CYP      0.420000
     58 HN3        -0.2800    5.9600   -5.5550 hn        1 CYP      0.473800
     59 HA31       -0.3980    5.2470   -3.0610 hx        1 CYP      0.127700
     60 HA32       -1.8630    5.0970   -4.1550 hx        1 CYP      0.127700
     61 H13        -0.3260    1.6110   -0.5740 hn        1 CYP      0.455133
     62 H22         2.7650    2.1130   -5.7170 hn        1 CYP      0.498800
     63 H32        -0.1460    4.3050   -5.8610 hn        1 CYP      0.473800
@<TRIPOS>BOND
     1    1    2 1   
     2    1   36 1   
     3    1   37 1   
     4    1   61 1   
     5    2    3 1   
     6    2    5 1   
     7    2   38 1   
     8    3    4 1   
     9    3    9 1   
    10    5    6 1   
    11    5   39 1   
    12    5   40 1   
    13    6    7 1   
    14    6   41 1   
    15    6   42 1   
    16    7    8 2   
    17    7   10 1   
    18   10   11 1   
    19   10   43 1   
    20   10   62 1   
    21   11   12 1   
    22   11   14 1   
    23   11   44 1   
    24   12   13 2   
    25   12   31 1   
    26   14   15 1   
    27   14   45 1   
    28   14   46 1   
    29   15   16 1   
    30   16   17 1   
    31   16   29 1   
    32   16   47 1   
    33   17   18 ar  
    34   17   22 ar  
    35   18   19 ar  
    36   18   48 1   
    37   19   20 ar  
    38   19   49 1   
    39   20   21 ar  
    40   20   50 1   
    41   21   22 ar  
    42   21   51 1   
    43   22   23 1   
    44   23   24 ar  
    45   23   28 ar  
    46   24   25 ar  
    47   24   52 1   
    48   25   26 ar  
    49   25   53 1   
    50   26   27 ar  
    51   26   54 1   
    52   27   28 ar  
    53   27   55 1   
    54   28   29 1   
    55   29   30 1   
    56   29   56 1   
    57   30   57 1   
    58   31   32 1   
    59   31   58 1   
    60   31   63 1   
    61   32   33 1   
    62   32   59 1   
    63   32   60 1   
    64   33   34 1   
    65   33   35 1   
@<TRIPOS>SUBSTRUCTURE
     1 CYP         1 TEMP              0 ****  ****    0 ROOT
