@<TRIPOS>MOLECULE
CYP
   63    65     1     0     0
SMALL
bcc


@<TRIPOS>ATOM
      1 N1         -0.4650   -0.4530   -1.3220 n4        1 CYP     -0.826600
      2 CA1        -0.0150    0.7430   -2.1020 c3        1 CYP     -0.053500
      3 C1          0.0120    0.3730   -3.6320 c         1 CYP      0.929600
      4 O11         0.1800   -0.8330   -3.9260 o         1 CYP     -0.793300
      5 CB1         1.3750    1.2200   -1.6750 c3        1 CYP     -0.076400
      6 CG1         1.7300    2.5220   -2.3760 c3        1 CYP     -0.152400
      7 CD1         2.8090    2.3210   -3.4050 c         1 CYP      0.554100
      8 OE1         3.9760    2.0290   -3.1790 o         1 CYP     -0.421100
      9 O12        -0.1180    1.3380   -4.4320 o         1 CYP     -0.793300
     10 N2          2.4450    2.4810   -4.8540 n4        1 CYP     -0.695800
     11 CA2         2.3450    3.9140   -5.2700 c3        1 CYP      0.064500
     12 C2          1.0860    4.6520   -4.7630 c         1 CYP      0.632100
     13 O2          1.2590    5.7010   -4.1200 o         1 CYP     -0.549100
     14 CB2         2.4450    4.0720   -6.7870 c3        1 CYP     -0.059300
     15 SG2         3.9510    3.3470   -7.3400 ss        1 CYP     -0.289200
     16 CA4         3.5310    2.0520   -8.5230 c3        1 CYP      0.031700
     17 CB4         2.1890    1.4600   -8.3420 ca        1 CYP     -0.127300
     18 CG4         1.1110    1.9470   -9.0900 ca        1 CYP     -0.127000
     19 CD4        -0.1550    1.3800   -8.9560 ca        1 CYP     -0.123000
     20 CE4        -0.3500    0.3250   -8.0660 ca        1 CYP     -0.108000
     21 CZ4         0.7170   -0.1720   -7.3190 ca        1 CYP     -0.094000
     22 CH4         1.9980    0.3810   -7.4510 ca        1 CYP     -0.055000
     23 CH5         3.1500   -0.1740   -6.7440 ca        1 CYP     -0.069000
     24 CZ5         2.9960   -1.0270   -5.6410 ca        1 CYP     -0.141000
     25 CE5         4.1090   -1.6090   -5.0370 ca        1 CYP     -0.125000
     26 CD5         5.3900   -1.3440   -5.5170 ca        1 CYP     -0.113000
     27 CG5         5.5590   -0.4800   -6.5990 ca        1 CYP     -0.099000
     28 CB5         4.4490    0.1110   -7.2080 ca        1 CYP     -0.123300
     29 CA5         4.6730    1.0370   -8.3700 c3        1 CYP      0.202400
     30 O5          4.8660    0.3370   -9.5830 oh        1 CYP     -0.566800
     31 N3         -0.1610    4.1980   -5.1410 n         1 CYP     -0.523900
     32 CA3        -1.3420    4.8580   -4.6630 c3        1 CYP     -0.008000
     33 C3         -1.8610    4.3710   -3.3210 c         1 CYP      0.623100
     34 O31        -3.1050    4.7480   -2.9250 oh        1 CYP     -0.558100
     35 O32        -1.2760    3.6520   -2.5060 o         1 CYP     -0.540000
     36 HN11       -0.0700   -0.4590   -0.3830 hn        1 CYP      0.459133
     37 HN12       -1.4850   -0.4560   -1.2690 hn        1 CYP      0.459133
     38 HA1        -0.7690    1.5730   -1.9450 hx        1 CYP      0.147700
     39 HB11        1.3920    1.4080   -0.5660 hc        1 CYP      0.073700
     40 HB12        2.1410    0.4280   -1.8940 hc        1 CYP      0.073700
     41 HG11        0.8020    2.9860   -2.8230 hc        1 CYP      0.128700
     42 HG12        2.1440    3.2540   -1.6250 hc        1 CYP      0.128700
     43 HN2         3.1940    2.0510   -5.4510 hn        1 CYP      0.497300
     44 HA2         3.2310    4.4530   -4.7990 hx        1 CYP      0.139700
     45 HB21        1.5530    3.6440   -7.3100 h1        1 CYP      0.119200
     46 HB22        2.4770    5.1720   -7.0090 h1        1 CYP      0.119200
     47 HA4         3.6150    2.5130   -9.5460 h1        1 CYP      0.118700
     48 HG4         1.2700    2.7680   -9.8070 ha        1 CYP      0.145000
     49 HD4        -0.9930    1.7580   -9.5610 ha        1 CYP      0.148000
     50 HE4        -1.3480   -0.1280   -7.9570 ha        1 CYP      0.151000
     51 HZ4         0.5380   -1.0030   -6.6150 ha        1 CYP      0.168000
     52 HZ5         1.9880   -1.2540   -5.2480 ha        1 CYP      0.170000
     53 HE5         3.9710   -2.2940   -4.1870 ha        1 CYP      0.140000
     54 HD5         6.2680   -1.8160   -5.0500 ha        1 CYP      0.150000
     55 HG5         6.5690   -0.2690   -6.9860 ha        1 CYP      0.154000
     56 HA5         5.6470    1.6010   -8.2340 h1        1 CYP      0.102700
     57 HO5         4.1110   -0.2540   -9.7080 ho        1 CYP      0.416000
     58 HN3        -3.5060    5.3400   -3.5780 ho        1 CYP      0.441000
     59 HA31       -1.1370    5.9660   -4.5600 h1        1 CYP      0.106700
     60 HA32       -2.1550    4.7050   -5.4320 h1        1 CYP      0.106700
     61 H13        -0.1600   -1.2970   -1.8430 hn        1 CYP      0.459133
     62 H22         1.5560    1.9710   -5.0450 hn        1 CYP      0.497300
     63 H32        -0.2750    3.2400   -5.4070 hn        1 CYP      0.353500
@<TRIPOS>BOND
     1    1    2 1   
     2    1   36 1   
     3    1   37 1   
     4    1   61 1   
     5    2    3 1   
     6    2    5 1   
     7    2   38 1   
     8    3    4 1   
     9    3    9 1   
    10    5    6 1   
    11    5   39 1   
    12    5   40 1   
    13    6    7 1   
    14    6   41 1   
    15    6   42 1   
    16    7    8 2   
    17    7   10 1   
    18   10   11 1   
    19   10   43 1   
    20   10   62 1   
    21   11   12 1   
    22   11   14 1   
    23   11   44 1   
    24   12   13 2   
    25   12   31 1   
    26   14   15 1   
    27   14   45 1   
    28   14   46 1   
    29   15   16 1   
    30   16   17 1   
    31   16   29 1   
    32   16   47 1   
    33   17   18 ar  
    34   17   22 ar  
    35   18   19 ar  
    36   18   48 1   
    37   19   20 ar  
    38   19   49 1   
    39   20   21 ar  
    40   20   50 1   
    41   21   22 ar  
    42   21   51 1   
    43   22   23 1   
    44   23   24 ar  
    45   23   28 ar  
    46   24   25 ar  
    47   24   52 1   
    48   25   26 ar  
    49   25   53 1   
    50   26   27 ar  
    51   26   54 1   
    52   27   28 ar  
    53   27   55 1   
    54   28   29 1   
    55   29   30 1   
    56   29   56 1   
    57   30   57 1   
    58   31   32 1   
    59   31   63 1   
    60   32   33 1   
    61   32   59 1   
    62   32   60 1   
    63   33   34 1   
    64   33   35 2   
    65   34   58 1   
@<TRIPOS>SUBSTRUCTURE
     1 CYP         1 TEMP              0 ****  ****    0 ROOT
