@<TRIPOS>MOLECULE
CYP
   63    65     1     0     0
SMALL
bcc


@<TRIPOS>ATOM
      1 N1         -0.2090   -0.2270   -0.0580 nz        1 CYP     -0.826600
      2 CA1         0.2320   -0.1460   -1.4820 c3        1 CYP     -0.069500
      3 C1          1.1690   -1.4080   -1.8100 c         1 CYP      0.938600
      4 O11         1.5990   -2.0270   -0.8110 o         1 CYP     -0.761300
      5 CB1         0.9980    1.1410   -1.7770 c3        1 CYP     -0.073400
      6 CG1         1.1570    1.2640   -3.2820 c3        1 CYP     -0.181400
      7 CD1         2.0410    2.4160   -3.6310 c         1 CYP      0.581100
      8 OE1         2.8150    3.0590   -2.9410 o         1 CYP     -0.442100
      9 O12         1.3620   -1.6120   -3.0270 o         1 CYP     -0.761300
     10 N2          1.9500    2.8270   -5.1010 ny        1 CYP     -0.718800
     11 CA2         2.4710    4.1830   -5.4100 c3        1 CYP      0.067500
     12 C2          1.6360    5.3680   -4.9140 c         1 CYP      0.522100
     13 O2          2.1190    6.2820   -4.2620 o         1 CYP     -0.374100
     14 CB2         2.7380    4.3700   -6.9080 c3        1 CYP     -0.082300
     15 SG2         4.0320    3.2730   -7.3520 ss        1 CYP     -0.251200
     16 CA4         3.3770    2.1410   -8.5900 c3        1 CYP      0.029700
     17 CB4         1.9590    1.7700   -8.3990 ca        1 CYP     -0.145300
     18 CG4         0.9610    2.4620   -9.0970 ca        1 CYP     -0.138000
     19 CD4        -0.3740    2.0790   -8.9840 ca        1 CYP     -0.129000
     20 CE4        -0.7190    0.9920   -8.1810 ca        1 CYP     -0.090000
     21 CZ4         0.2670    0.2910   -7.4890 ca        1 CYP     -0.114000
     22 CH4         1.6130    0.6730   -7.5800 ca        1 CYP     -0.043000
     23 CH5         2.6690   -0.0740   -6.9020 ca        1 CYP     -0.093000
     24 CZ5         2.3920   -0.9280   -5.8260 ca        1 CYP     -0.132000
     25 CE5         3.4110   -1.6680   -5.2240 ca        1 CYP     -0.096000
     26 CD5         4.7170   -1.5730   -5.7000 ca        1 CYP     -0.114000
     27 CG5         5.0080   -0.7240   -6.7680 ca        1 CYP     -0.102000
     28 CB5         3.9960    0.0330   -7.3630 ca        1 CYP     -0.132300
     29 CA5         4.3460    0.9490   -8.4980 c3        1 CYP      0.207400
     30 O5          4.4000    0.2840   -9.7430 oh        1 CYP     -0.563800
     31 N3          0.2020    5.4920   -5.3050 ny        1 CYP     -0.655800
     32 CA3        -0.7060    5.2630   -4.1330 c3        1 CYP     -0.050200
     33 C3         -0.9560    3.7340   -3.9530 c         1 CYP      0.907600
     34 O31        -0.8390    3.0380   -5.0140 o         1 CYP     -0.779800
     35 O32        -1.1880    3.3090   -2.8090 o         1 CYP     -0.779800
     36 HN11       -0.2290    0.6890    0.3870 hn        1 CYP      0.454800
     37 HN12       -1.1320   -0.6560   -0.0060 hn        1 CYP      0.454800
     38 HA1        -0.6820   -0.2090   -2.1370 hx        1 CYP      0.105700
     39 HB11        0.4370    2.0420   -1.4010 hc        1 CYP      0.074200
     40 HB12        2.0040    1.1130   -1.2810 hc        1 CYP      0.074200
     41 HG11        0.1330    1.3930   -3.7490 hc        1 CYP      0.161200
     42 HG12        1.6170    0.3120   -3.7050 hc        1 CYP      0.161200
     43 HN2         2.5220    2.1520   -5.6620 hn        1 CYP      0.503800
     44 HA2         3.4690    4.2850   -4.8530 hx        1 CYP      0.178700
     45 HB21        3.0960    5.4200   -7.0730 h1        1 CYP      0.110700
     46 HB22        1.8170    4.2060   -7.5240 h1        1 CYP      0.110700
     47 HA4         3.5170    2.6230   -9.5960 h1        1 CYP      0.118700
     48 HG4         1.2380    3.2850   -9.7730 ha        1 CYP      0.140000
     49 HD4        -1.1510    2.6160   -9.5490 ha        1 CYP      0.150000
     50 HE4        -1.7720    0.6770   -8.1000 ha        1 CYP      0.159000
     51 HZ4        -0.0170   -0.5890   -6.8880 ha        1 CYP      0.162000
     52 HZ5         1.3670   -1.0480   -5.4360 ha        1 CYP      0.161000
     53 HE5         3.1590   -2.3190   -4.3650 ha        1 CYP      0.191000
     54 HD5         5.5190   -2.1710   -5.2390 ha        1 CYP      0.155000
     55 HG5         6.0380   -0.6530   -7.1530 ha        1 CYP      0.152000
     56 HA5         5.3990    1.3490   -8.3670 h1        1 CYP      0.101700
     57 HO5         3.5920   -0.2380   -9.8380 ho        1 CYP      0.419000
     58 HN3        -0.0490    4.7730   -6.0110 hn        1 CYP      0.472300
     59 HA31       -1.6930    5.7580   -4.3480 hx        1 CYP      0.121200
     60 HA32       -0.2540    5.7100   -3.2080 hx        1 CYP      0.121200
     61 H13         0.4740   -0.8500    0.4290 hn        1 CYP      0.454800
     62 H22         0.9530    2.7170   -5.4050 hn        1 CYP      0.503800
     63 H32         0.0360    6.4300   -5.6880 hn        1 CYP      0.472300
@<TRIPOS>BOND
     1    1    2 1   
     2    1   36 1   
     3    1   37 1   
     4    1   61 1   
     5    2    3 1   
     6    2    5 1   
     7    2   38 1   
     8    3    4 1   
     9    3    9 1   
    10    5    6 1   
    11    5   39 1   
    12    5   40 1   
    13    6    7 1   
    14    6   41 1   
    15    6   42 1   
    16    7    8 2   
    17    7   10 1   
    18   10   11 1   
    19   10   43 1   
    20   10   62 1   
    21   11   12 1   
    22   11   14 1   
    23   11   44 1   
    24   12   13 2   
    25   12   31 1   
    26   14   15 1   
    27   14   45 1   
    28   14   46 1   
    29   15   16 1   
    30   16   17 1   
    31   16   29 1   
    32   16   47 1   
    33   17   18 ar  
    34   17   22 ar  
    35   18   19 ar  
    36   18   48 1   
    37   19   20 ar  
    38   19   49 1   
    39   20   21 ar  
    40   20   50 1   
    41   21   22 ar  
    42   21   51 1   
    43   22   23 1   
    44   23   24 ar  
    45   23   28 ar  
    46   24   25 ar  
    47   24   52 1   
    48   25   26 ar  
    49   25   53 1   
    50   26   27 ar  
    51   26   54 1   
    52   27   28 ar  
    53   27   55 1   
    54   28   29 1   
    55   29   30 1   
    56   29   56 1   
    57   30   57 1   
    58   31   32 1   
    59   31   58 1   
    60   31   63 1   
    61   32   33 1   
    62   32   59 1   
    63   32   60 1   
    64   33   34 1   
    65   33   35 1   
@<TRIPOS>SUBSTRUCTURE
     1 CYP         1 TEMP              0 ****  ****    0 ROOT
