@<TRIPOS>MOLECULE
CYP
   60    62     1     0     0
SMALL
bcc


@<TRIPOS>ATOM
      1 N1         -1.9160    1.8550    5.5750 n3        1 CYP     -0.895800
      2 CA1        -2.8050    1.2520    4.5880 c3        1 CYP      0.019500
      3 C1         -4.2430    0.9490    5.1230 c         1 CYP      0.889600
      4 O11        -4.4900    1.1870    6.3430 o         1 CYP     -0.848800
      5 CB1        -2.2330   -0.0190    3.9540 c3        1 CYP     -0.057400
      6 CG1        -1.0140    0.2850    3.1090 c3        1 CYP     -0.143400
      7 CD1        -0.3550   -0.9700    2.5700 c         1 CYP      0.665100
      8 OE1        -0.6760   -2.1220    2.9230 o         1 CYP     -0.614100
      9 O12        -5.0980    0.5170    4.3020 o         1 CYP     -0.848800
     10 N2          0.6910   -0.7730    1.6720 n         1 CYP     -0.572900
     11 CA2         1.3690   -1.8510    1.0140 c3        1 CYP      0.042700
     12 C2          2.8600   -2.0100    1.4480 c         1 CYP      0.630100
     13 O2          3.2670   -3.1410    1.7790 o         1 CYP     -0.618100
     14 CB2         1.4440   -1.7370   -0.5150 c3        1 CYP     -0.063300
     15 SG2        -0.1150   -1.3310   -1.2470 ss        1 CYP     -0.281200
     16 CA4         0.4190   -0.7430   -2.8530 c3        1 CYP      0.015700
     17 CB4         0.5740    0.7340   -2.8770 ca        1 CYP     -0.067300
     18 CG4         1.8080    1.3050   -2.5430 ca        1 CYP     -0.115000
     19 CD4         1.9700    2.6890   -2.5710 ca        1 CYP     -0.118000
     20 CE4         0.9070    3.5100   -2.9440 ca        1 CYP     -0.146000
     21 CZ4        -0.3220    2.9510   -3.2800 ca        1 CYP     -0.128000
     22 CH4        -0.5080    1.5630   -3.2420 ca        1 CYP     -0.043000
     23 CH5        -1.7920    0.9560   -3.5810 ca        1 CYP      0.000000
     24 CZ5        -2.9860    1.6910   -3.5660 ca        1 CYP     -0.123000
     25 CE5        -4.1950    1.0870   -3.9020 ca        1 CYP     -0.126000
     26 CD5        -4.2330   -0.2610   -4.2550 ca        1 CYP     -0.142000
     27 CG5        -3.0560   -1.0080   -4.2550 ca        1 CYP     -0.104000
     28 CB5        -1.8410   -0.4120   -3.9130 ca        1 CYP     -0.106300
     29 CA5        -0.5930   -1.2500   -3.8840 c3        1 CYP      0.201400
     30 O5         -0.0000   -1.3250   -5.1740 oh        1 CYP     -0.599800
     31 N3          3.6640   -0.8770    1.4590 n         1 CYP     -0.488900
     32 CA3         5.0440   -0.9840    1.0340 c3        1 CYP     -0.070000
     33 C3          5.2980   -0.5040   -0.4210 c         1 CYP      0.898600
     34 O31         4.3020   -0.2080   -1.1500 o         1 CYP     -0.853800
     35 O32         6.4970   -0.4300   -0.8010 o         1 CYP     -0.853800
     36 HN11       -1.5780    1.1320    6.1860 hn        1 CYP      0.330300
     37 HN12       -2.4770    2.4670    6.1470 hn        1 CYP      0.330300
     38 HA1        -2.9340    2.0230    3.7710 h1        1 CYP      0.038700
     39 HB11       -1.9690   -0.7700    4.7420 hc        1 CYP      0.061700
     40 HB12       -3.0390   -0.4730    3.3180 hc        1 CYP      0.061700
     41 HG11       -1.3120    0.9490    2.2540 hc        1 CYP      0.063700
     42 HG12       -0.2520    0.8390    3.7210 hc        1 CYP      0.063700
     43 HN2         0.8410    0.1390    1.3120 hn        1 CYP      0.309500
     44 HA2         0.8500   -2.8190    1.2960 h1        1 CYP      0.111700
     45 HB21        2.2130   -0.9730   -0.8220 h1        1 CYP      0.099200
     46 HB22        1.7910   -2.7260   -0.9060 h1        1 CYP      0.099200
     47 HA4         1.4130   -1.2180   -3.0870 h1        1 CYP      0.107700
     48 HG4         2.6660    0.6650   -2.2470 ha        1 CYP      0.212000
     49 HD4         2.9430    3.1230   -2.2960 ha        1 CYP      0.142000
     50 HE4         1.0360    4.6020   -2.9690 ha        1 CYP      0.118000
     51 HZ4        -1.1490    3.6100   -3.5810 ha        1 CYP      0.119000
     52 HZ5        -2.9780    2.7480   -3.2620 ha        1 CYP      0.132000
     53 HE5        -5.1240    1.6750   -3.8750 ha        1 CYP      0.123000
     54 HD5        -5.1880   -0.7380   -4.5150 ha        1 CYP      0.122000
     55 HG5        -3.0810   -2.0770   -4.5150 ha        1 CYP      0.131000
     56 HA5        -0.8530   -2.3240   -3.6470 h1        1 CYP      0.095700
     57 HO5         0.3040   -0.4370   -5.3990 ho        1 CYP      0.403000
     58 HN3         3.2310   -0.0760    1.0390 hn        1 CYP      0.285500
     59 HA31        5.6610   -0.3480    1.7270 h1        1 CYP      0.052700
     60 HA32        5.3950   -2.0470    1.1240 h1        1 CYP      0.052700
@<TRIPOS>BOND
     1    1    2 1   
     2    1   36 1   
     3    1   37 1   
     4    2    3 1   
     5    2    5 1   
     6    2   38 1   
     7    3    4 1   
     8    3    9 1   
     9    5    6 1   
    10    5   39 1   
    11    5   40 1   
    12    6    7 1   
    13    6   41 1   
    14    6   42 1   
    15    7    8 2   
    16    7   10 1   
    17   10   11 1   
    18   10   43 1   
    19   11   12 1   
    20   11   14 1   
    21   11   44 1   
    22   12   13 2   
    23   12   31 1   
    24   14   15 1   
    25   14   45 1   
    26   14   46 1   
    27   15   16 1   
    28   16   17 1   
    29   16   29 1   
    30   16   47 1   
    31   17   18 ar  
    32   17   22 ar  
    33   18   19 ar  
    34   18   48 1   
    35   19   20 ar  
    36   19   49 1   
    37   20   21 ar  
    38   20   50 1   
    39   21   22 ar  
    40   21   51 1   
    41   22   23 1   
    42   23   24 ar  
    43   23   28 ar  
    44   24   25 ar  
    45   24   52 1   
    46   25   26 ar  
    47   25   53 1   
    48   26   27 ar  
    49   26   54 1   
    50   27   28 ar  
    51   27   55 1   
    52   28   29 1   
    53   29   30 1   
    54   29   56 1   
    55   30   57 1   
    56   31   32 1   
    57   31   58 1   
    58   32   33 1   
    59   32   59 1   
    60   32   60 1   
    61   33   34 1   
    62   33   35 1   
@<TRIPOS>SUBSTRUCTURE
     1 CYP         1 TEMP              0 ****  ****    0 ROOT
