@<TRIPOS>MOLECULE
CYQ
   19    18     1     0     0
SMALL
bcc


@<TRIPOS>ATOM
      1 N           1.6470    0.5200    2.6460 n3        1 CYQ     -0.912800
      2 CA          0.1940    0.4480    2.7120 c3        1 CYQ      0.065500
      3 CB         -0.4670   -0.1790    1.4810 c3        1 CYQ     -0.049300
      4 SG         -0.0240    0.7100   -0.0080 ss        1 CYQ     -0.327200
      5 CD         -0.3390   -0.4040   -1.2840 c3        1 CYQ     -0.203500
      6 C          -0.2890   -0.2970    3.9920 c         1 CYQ      0.912600
      7 O           0.3050   -1.3530    4.3670 o         1 CYQ     -0.879300
      8 OXT        -1.2630    0.1950    4.6400 o         1 CYQ     -0.879300
      9 P          -0.1170   -0.1330   -3.3210 p5        1 CYQ      1.200700
     10 O1P         0.8370   -1.2550   -3.6210 o         1 CYQ     -0.928167
     11 O2P        -1.5330   -0.3770   -3.7640 o         1 CYQ     -0.928167
     12 O3P         0.4100    1.2460   -3.5870 o         1 CYQ     -0.928167
     13 H           1.9150    0.6360    1.6810 hn        1 CYQ      0.335800
     14 H2          2.0230   -0.3560    2.9660 hn        1 CYQ      0.335800
     15 HA         -0.1720    1.5150    2.7900 h1        1 CYQ      0.039700
     16 HB2        -0.1690   -1.2490    1.3840 h1        1 CYQ      0.036200
     17 HB3        -1.5720   -0.1480    1.6210 h1        1 CYQ      0.036200
     18 HD2         0.3070   -1.2950   -1.2270 h1        1 CYQ      0.036700
     19 HD3        -1.4030   -0.6830   -1.3370 h1        1 CYQ      0.036700
@<TRIPOS>BOND
     1    1    2 1   
     2    1   13 1   
     3    1   14 1   
     4    2    3 1   
     5    2    6 1   
     6    2   15 1   
     7    3    4 1   
     8    3   16 1   
     9    3   17 1   
    10    4    5 1   
    11    5    9 1   
    12    5   18 1   
    13    5   19 1   
    14    6    7 1   
    15    6    8 1   
    16    9   10 1   
    17    9   11 1   
    18    9   12 1   
@<TRIPOS>SUBSTRUCTURE
     1 CYQ         1 TEMP              0 ****  ****    0 ROOT
