@<TRIPOS>MOLECULE
CYR
   35    34     1     0     0
SMALL
bcc


@<TRIPOS>ATOM
      1 O1          6.3140    1.3250   -0.9790 o         1 CYR     -0.833300
      2 C1          6.4680    0.3790   -0.1580 c         1 CYR      0.891600
      3 O2          7.5200    0.1450    0.4970 o         1 CYR     -0.833300
      4 C2          5.2520   -0.5920    0.0450 c3        1 CYR      0.012500
      5 N2          5.4230   -1.5700    1.1100 n3        1 CYR     -0.894800
      6 C3          4.0000    0.2670    0.2180 c3        1 CYR     -0.065400
      7 C4          2.7320   -0.5530    0.1050 c3        1 CYR     -0.087400
      8 C5          1.5330    0.3950    0.0780 c3        1 CYR     -0.001700
      9 N6          0.2650   -0.2990   -0.0070 nh        1 CYR     -0.354100
     10 C7         -0.9420    0.3160   -0.0850 c2        1 CYR      0.370700
     11 N7         -1.0540    1.6730   -0.0940 nh        1 CYR     -0.494200
     12 SG         -2.3210   -0.6970   -0.1870 ss        1 CYR     -0.084300
     13 CB         -3.7410    0.3570   -0.2790 c3        1 CYR     -0.018300
     14 CA         -4.9140   -0.5880   -0.0890 c3        1 CYR     -0.006500
     15 C          -6.1460    0.3120    0.3830 c         1 CYR      0.912600
     16 O          -7.2650    0.0010   -0.0860 o         1 CYR     -0.795300
     17 N          -5.1740   -1.4190   -1.2510 n3        1 CYR     -0.892800
     18 OXT        -5.8770    1.2380    1.1880 o         1 CYR     -0.795300
     19 HC2         5.1510   -1.1740   -0.9170 h1        1 CYR      0.041700
     20 HN21        6.3130   -2.0180    0.9600 hn        1 CYR      0.336300
     21 HN22        5.5040   -1.0760    1.9820 hn        1 CYR      0.336300
     22 H31         4.0250    0.7900    1.2090 hc        1 CYR      0.055200
     23 H32         4.0320    1.0540   -0.5840 hc        1 CYR      0.055200
     24 H41         2.7610   -1.1640   -0.8350 hc        1 CYR      0.056700
     25 H42         2.6550   -1.2600    0.9710 hc        1 CYR      0.056700
     26 H51         1.5410    1.0230    1.0160 h1        1 CYR      0.059700
     27 H52         1.6350    1.0840   -0.8110 h1        1 CYR      0.059700
     28 HN6         0.2810   -1.2990   -0.0260 hn        1 CYR      0.322700
     29 HN71       -1.9580    2.0880   -0.0980 hn        1 CYR      0.311700
     30 HN72       -0.2620    2.2690   -0.0190 hn        1 CYR      0.311700
     31 HB3        -3.7760    1.1000    0.5620 h1        1 CYR      0.098200
     32 HB2        -3.7840    0.8930   -1.2540 h1        1 CYR      0.098200
     33 HA         -4.7000   -1.2730    0.7840 h1        1 CYR      0.068700
     34 H          -5.9170   -2.0520   -1.0110 hn        1 CYR      0.350300
     35 H2         -5.5220   -0.8360   -1.9930 hn        1 CYR      0.350300
@<TRIPOS>BOND
     1    1    2 1   
     2    2    3 1   
     3    2    4 1   
     4    4    5 1   
     5    4    6 1   
     6    4   19 1   
     7    5   20 1   
     8    5   21 1   
     9    6    7 1   
    10    6   22 1   
    11    6   23 1   
    12    7    8 1   
    13    7   24 1   
    14    7   25 1   
    15    8    9 1   
    16    8   26 1   
    17    8   27 1   
    18    9   10 2   
    19    9   28 1   
    20   10   11 1   
    21   10   12 1   
    22   11   29 1   
    23   11   30 1   
    24   12   13 1   
    25   13   14 1   
    26   13   31 1   
    27   13   32 1   
    28   14   15 1   
    29   14   17 1   
    30   14   33 1   
    31   15   16 1   
    32   15   18 1   
    33   17   34 1   
    34   17   35 1   
@<TRIPOS>SUBSTRUCTURE
     1 CYR         1 TEMP              0 ****  ****    0 ROOT
