@<TRIPOS>MOLECULE
CYS
   13    12     1     0     0
SMALL
bcc


@<TRIPOS>ATOM
      1 N           1.7060    0.3430   -0.2490 n3        1 CYS     -0.882800
      2 CA          0.2770    0.3320    0.0360 c3        1 CYS      0.021500
      3 C          -0.0860   -0.1240    1.4980 c         1 CYS      0.890600
      4 O           0.8610   -0.2530    2.3230 o         1 CYS     -0.836800
      5 CB         -0.5320   -0.5190   -0.9270 c3        1 CYS      0.052700
      6 SG         -0.5880    0.2290   -2.5480 sh        1 CYS     -0.434900
      7 OXT        -1.3040   -0.3140    1.7630 o         1 CYS     -0.836800
      8 H           2.1630    0.7350    0.5590 hn        1 CYS      0.332300
      9 H2          2.0270   -0.6060   -0.3230 hn        1 CYS      0.332300
     10 HA         -0.0750    1.4020   -0.0510 h1        1 CYS      0.060700
     11 HB2        -0.1020   -1.5440   -1.0220 h1        1 CYS      0.067200
     12 HB3        -1.5690   -0.6040   -0.5140 h1        1 CYS      0.067200
     13 HG         -1.6960   -0.3350   -2.9850 hs        1 CYS      0.165800
@<TRIPOS>BOND
     1    1    2 1   
     2    1    8 1   
     3    1    9 1   
     4    2    3 1   
     5    2    5 1   
     6    2   10 1   
     7    3    4 1   
     8    3    7 1   
     9    5    6 1   
    10    5   11 1   
    11    5   12 1   
    12    6   13 1   
@<TRIPOS>SUBSTRUCTURE
     1 CYS         1 TEMP              0 ****  ****    0 ROOT
