@<TRIPOS>MOLECULE
CYT
   13    13     1     0     0
SMALL
bcc


@<TRIPOS>ATOM
      1 N3         -0.0270    0.1250   -0.0470 ns        1 CYT     -0.496100
      2 C4          1.3550   -0.0130   -0.0470 cc        1 CYT      0.334600
      3 N1         -0.0830   -0.0320    2.4140 nc        1 CYT     -0.651100
      4 C2         -0.7680    0.1030    1.1870 c         1 CYT      0.821900
      5 O2         -2.0020    0.2150    1.0670 o         1 CYT     -0.607500
      6 N4          2.0560   -0.0780   -1.2450 nv        1 CYT     -0.864600
      7 C5          2.0180   -0.1360    1.1880 cd        1 CYT     -0.489600
      8 C6          1.2280   -0.1430    2.3730 cd        1 CYT      0.568500
      9 HN3        -0.5440    0.1850   -0.8960 hn        1 CYT      0.332500
     10 HN41        3.0420    0.0150   -1.1780 hn        1 CYT      0.429800
     11 HN42        1.6320    0.2500   -2.0780 hn        1 CYT      0.429800
     12 H5          3.1050   -0.2380    1.2470 ha        1 CYT      0.155000
     13 H6          1.7360   -0.2480    3.3530 h4        1 CYT      0.035800
@<TRIPOS>BOND
     1    1    2 1   
     2    1    4 1   
     3    1    9 1   
     4    2    6 1   
     5    2    7 2   
     6    3    4 1   
     7    3    8 2   
     8    4    5 2   
     9    6   10 1   
    10    6   11 1   
    11    7    8 1   
    12    7   12 1   
    13    8   13 1   
@<TRIPOS>SUBSTRUCTURE
     1 CYT         1 TEMP              0 ****  ****    0 ROOT
