@<TRIPOS>MOLECULE
CYT
   13    10     1     0     0
SMALL
bcc


@<TRIPOS>ATOM
      1 N3         -1.0080    0.0020   -0.5680 n2        1 CYT     -0.804800
      2 C4          0.3340    0.0020   -0.5680 c1        1 CYT      0.305800
      3 N1         -1.0100    0.0020    1.7920 n1        1 CYT     -0.549800
      4 C2         -1.6890    0.0020    0.6110 c1        1 CYT      0.793900
      5 O2         -2.9040    0.0130    0.6100 o         1 CYT     -0.565500
      6 N4          1.0440   -0.0080   -1.7960 n3        1 CYT     -0.838400
      7 C5          1.0160    0.0020    0.6130 c1        1 CYT     -0.345500
      8 C6          0.3320    0.0020    1.7950 c1        1 CYT      0.448300
      9 HN3        -1.4630    0.0020   -1.3580 hn        1 CYT      0.490400
     10 HN41        1.2710    0.7780   -2.1980 hn        1 CYT      0.429800
     11 HN42        1.2650   -0.8010   -2.1880 hn        1 CYT      0.429800
     12 H5          1.9920    0.0020    0.6140 ha        1 CYT      0.097500
     13 H6          0.8190    0.0020    2.6410 ha        1 CYT      0.107500
@<TRIPOS>BOND
     1    1    4 2   
     2    1    9 1   
     3    2    6 1   
     4    2    7 3   
     5    3    8 3   
     6    4    5 2   
     7    6   10 1   
     8    6   11 1   
     9    7   12 1   
    10    8   13 1   
@<TRIPOS>SUBSTRUCTURE
     1 CYT         1 TEMP              0 ****  ****    0 ROOT
