@<TRIPOS>MOLECULE
CYT
   14    14     1     0     0
SMALL
bcc


@<TRIPOS>ATOM
      1 N3         -0.0310    0.0440   -0.0410 n         1 CYT     -0.499100
      2 C4          1.3470   -0.0090    0.0110 cc        1 CYT      0.136600
      3 N1         -0.0860    0.0030    2.4370 nc        1 CYT     -0.527100
      4 C2         -0.7920    0.0510    1.2010 c         1 CYT      0.820900
      5 O2         -2.0150    0.0990    1.0680 o         1 CYT     -0.486500
      6 N4          2.1170   -0.0150   -1.2610 n4        1 CYT     -0.740400
      7 C5          2.0250   -0.0550    1.2100 cd        1 CYT     -0.314600
      8 C6          1.2120   -0.0450    2.4210 cd        1 CYT      0.541500
      9 HN3        -0.5430    0.0770   -0.8970 hn        1 CYT      0.356500
     10 HN41        1.8630   -0.8360   -1.8270 hn        1 CYT      0.478467
     11 HN42        1.9250    0.8400   -1.7990 hn        1 CYT      0.478467
     12 H5          3.1190   -0.0970    1.3050 ha        1 CYT      0.187000
     13 H6          1.7350   -0.0820    3.4030 h4        1 CYT      0.088800
     14 H43         3.1220   -0.0570   -1.0430 hn        1 CYT      0.478467
@<TRIPOS>BOND
     1    1    2 1   
     2    1    4 1   
     3    1    9 1   
     4    2    6 1   
     5    2    7 2   
     6    3    4 1   
     7    3    8 2   
     8    4    5 2   
     9    6   10 1   
    10    6   11 1   
    11    6   14 1   
    12    7    8 1   
    13    7   12 1   
    14    8   13 1   
@<TRIPOS>SUBSTRUCTURE
     1 CYT         1 TEMP              0 ****  ****    0 ROOT
