@<TRIPOS>MOLECULE
CYT
   13    13     1     0     0
SMALL
bcc


@<TRIPOS>ATOM
      1 N3         -0.4050   -2.0750   -3.1600 n         1 CYT     -0.496100
      2 C4          0.3600   -0.9180   -3.2360 cc        1 CYT      0.334600
      3 N1         -0.7890   -1.7100   -0.7510 nc        1 CYT     -0.651100
      4 C2         -0.9790   -2.4960   -1.9080 c         1 CYT      0.821900
      5 O2         -1.6280   -3.5580   -1.9520 o         1 CYT     -0.607500
      6 N4          0.9830   -0.5640   -4.4260 nh        1 CYT     -0.864600
      7 C5          0.5270   -0.1460   -2.0710 cd        1 CYT     -0.489600
      8 C6         -0.0730   -0.6130   -0.8670 cd        1 CYT      0.568500
      9 HN3        -0.5280   -2.6700   -3.9490 hn        1 CYT      0.332500
     10 HN41        1.3500    0.3570   -4.4680 hn        1 CYT      0.429800
     11 HN42        0.6690   -0.9580   -5.2790 hn        1 CYT      0.429800
     12 H5          1.1110    0.7780   -2.0770 ha        1 CYT      0.155000
     13 H6          0.0580   -0.0190    0.0600 h4        1 CYT      0.035800
@<TRIPOS>BOND
     1    1    2 1   
     2    1    4 1   
     3    1    9 1   
     4    2    6 1   
     5    2    7 2   
     6    3    4 1   
     7    3    8 2   
     8    4    5 2   
     9    6   10 1   
    10    6   11 1   
    11    7    8 1   
    12    7   12 1   
    13    8   13 1   
@<TRIPOS>SUBSTRUCTURE
     1 CYT         1 TEMP              0 ****  ****    0 ROOT
