@<TRIPOS>MOLECULE
CYW
   22    21     1     0     0
SMALL
bcc


@<TRIPOS>ATOM
      1 C           3.1560   -0.1860   -0.0400 c         1 CYW      0.896600
      2 N           1.0210   -1.2440    0.8880 n3        1 CYW     -0.901800
      3 O           3.7610   -0.7210    0.9270 o         1 CYW     -0.831800
      4 CA          1.6250   -0.5090   -0.2130 c3        1 CYW      0.012500
      5 CB          0.9190    0.7950   -0.5270 c3        1 CYW      0.030700
      6 SG         -0.7530    0.5940   -1.1170 ss        1 CYW     -0.274700
      7 HN          1.7230   -1.8690    1.2510 hn        1 CYW      0.342800
      8 C1         -1.7290    0.4190    0.2640 c         1 CYW      0.543700
      9 O1         -1.4310    0.5900    1.4540 o         1 CYW     -0.551100
     10 C2         -3.1570    0.0260   -0.1020 c3        1 CYW      0.053100
     11 O2         -4.0810    0.5890    0.8150 oh        1 CYW     -0.603800
     12 C3         -3.2830   -1.4870   -0.1300 c3        1 CYW     -0.119100
     13 OXT         3.6800    0.5720   -0.9000 o         1 CYW     -0.831800
     14 HNA         0.7900   -0.6040    1.6280 hn        1 CYW      0.342800
     15 HA          1.5580   -1.1850   -1.1170 h1        1 CYW      0.054700
     16 HB          0.9160    1.4730    0.3580 h1        1 CYW      0.093200
     17 HBA         1.4620    1.2950   -1.3720 h1        1 CYW      0.093200
     18 H2         -3.4420    0.4700   -1.0980 h1        1 CYW      0.086700
     19 HO2        -3.7280    0.4390    1.7030 ho        1 CYW      0.415000
     20 H3         -2.9930   -1.9170    0.8580 hc        1 CYW      0.049033
     21 H3A        -4.3400   -1.7700   -0.3480 hc        1 CYW      0.049033
     22 H3B        -2.6150   -1.9110   -0.9170 hc        1 CYW      0.049033
@<TRIPOS>BOND
     1    1    3 1   
     2    1    4 1   
     3    1   13 1   
     4    2    4 1   
     5    2    7 1   
     6    2   14 1   
     7    4    5 1   
     8    4   15 1   
     9    5    6 1   
    10    5   16 1   
    11    5   17 1   
    12    6    8 1   
    13    8    9 2   
    14    8   10 1   
    15   10   11 1   
    16   10   12 1   
    17   10   18 1   
    18   11   19 1   
    19   12   20 1   
    20   12   21 1   
    21   12   22 1   
@<TRIPOS>SUBSTRUCTURE
     1 CYW         1 TEMP              0 ****  ****    0 ROOT
