@<TRIPOS>MOLECULE
CYX
   17    16     1     0     0
SMALL
bcc


@<TRIPOS>ATOM
      1 C1          0.1140    0.1450    0.2020 c         1 CYX      0.572100
      2 C2          1.5260   -0.2820    0.2080 ce        1 CYX     -0.148400
      3 O3         -0.7390   -0.2550   -0.6070 o         1 CYX     -0.629100
      4 C4          2.0350   -1.0070   -0.7960 c2        1 CYX     -0.239000
      5 C5          2.3140    0.1810    1.3850 c3        1 CYX     -0.048200
      6 C6          2.4940    1.6570    1.4610 c3        1 CYX     -0.267600
      7 P7          3.3310    1.8690    3.0750 p5        1 CYX      1.211700
      8 O8          3.5010    3.3650    3.1900 o         1 CYX     -0.954500
      9 O9          4.6110    1.0800    2.9070 o         1 CYX     -0.954500
     10 O10         2.3360    1.2560    4.0390 o         1 CYX     -0.954500
     11 H11        -0.1560    0.8710    1.0050 h4        1 CYX      0.028200
     12 H41         1.4330   -1.3150   -1.6600 ha        1 CYX      0.094000
     13 H42         3.0870   -1.3180   -0.8090 ha        1 CYX      0.094000
     14 H51         3.3390   -0.2850    1.3980 hc        1 CYX      0.083200
     15 H52         1.7980   -0.1390    2.3400 hc        1 CYX      0.083200
     16 H61         1.5400    2.2180    1.4860 hc        1 CYX      0.014700
     17 H62         3.1420    2.0590    0.6600 hc        1 CYX      0.014700
@<TRIPOS>BOND
     1    1    2 1   
     2    1    3 2   
     3    1   11 1   
     4    2    4 2   
     5    2    5 1   
     6    4   12 1   
     7    4   13 1   
     8    5    6 1   
     9    5   14 1   
    10    5   15 1   
    11    6    7 1   
    12    6   16 1   
    13    6   17 1   
    14    7    8 1   
    15    7    9 1   
    16    7   10 1   
@<TRIPOS>SUBSTRUCTURE
     1 CYX         1 TEMP              0 ****  ****    0 ROOT
