@<TRIPOS>MOLECULE
CYX
   17    16     1     0     0
SMALL
bcc


@<TRIPOS>ATOM
      1 C1          0.6160   -0.2800   -2.9320 c         1 CYX      0.572100
      2 C2         -0.6050    0.1930   -2.2530 ce        1 CYX     -0.148400
      3 O3          0.7430   -0.3820   -4.1630 o         1 CYX     -0.629100
      4 C4         -1.7470    0.3770   -2.9290 c2        1 CYX     -0.239000
      5 C5         -0.4600    0.4130   -0.7860 c3        1 CYX     -0.048200
      6 C6         -0.1980   -0.8260   -0.0030 c3        1 CYX     -0.267600
      7 P7          0.0910   -0.1730    1.6820 p5        1 CYX      1.211700
      8 O8          0.3860   -1.4120    2.4930 o         1 CYX     -0.954500
      9 O9         -1.2110    0.5250    2.0100 o         1 CYX     -0.954500
     10 O10         1.2680    0.7570    1.4720 o         1 CYX     -0.954500
     11 H11         1.4560   -0.5460   -2.2470 h4        1 CYX      0.028200
     12 H41        -1.8270    0.1870   -4.0060 ha        1 CYX      0.094000
     13 H42        -2.6640    0.7160   -2.4320 ha        1 CYX      0.094000
     14 H51        -1.3790    0.8980   -0.3540 hc        1 CYX      0.083200
     15 H52         0.4040    1.1170   -0.5900 hc        1 CYX      0.083200
     16 H61         0.7090   -1.3710   -0.3280 hc        1 CYX      0.014700
     17 H62        -1.0610   -1.5180    0.0180 hc        1 CYX      0.014700
@<TRIPOS>BOND
     1    1    2 1   
     2    1    3 2   
     3    1   11 1   
     4    2    4 2   
     5    2    5 1   
     6    4   12 1   
     7    4   13 1   
     8    5    6 1   
     9    5   14 1   
    10    5   15 1   
    11    6    7 1   
    12    6   16 1   
    13    6   17 1   
    14    7    8 1   
    15    7    9 1   
    16    7   10 1   
@<TRIPOS>SUBSTRUCTURE
     1 CYX         1 TEMP              0 ****  ****    0 ROOT
