@<TRIPOS>MOLECULE
CYX
   17    14     1     0     0
SMALL
bcc


@<TRIPOS>ATOM
      1 C1         -2.0610    1.2540    0.3920 c1        1 CYX      0.221000
      2 C2         -0.5480    1.2540    0.3920 c1        1 CYX     -0.125000
      3 O3         -2.6690    1.2540    1.4460 o         1 CYX     -0.390000
      4 C4          0.1260    2.4090    0.2230 c1        1 CYX     -0.239000
      5 C5          0.2080   -0.0420    0.5820 c3        1 CYX     -0.131000
      6 C6          0.3370   -0.7500   -0.7490 c3        1 CYX     -0.754000
      7 P7          1.1490   -2.3560   -0.5040 p5        1 CYX      1.619500
      8 O8          0.2750   -3.2360    0.3560 o         1 CYX     -0.954500
      9 O9          1.3680   -3.0180   -1.8430 o         1 CYX     -0.954500
     10 O10         2.4800   -2.1470    0.1780 o         1 CYX     -0.954500
     11 H11        -2.5490    1.2820   -0.4530 ha        1 CYX      0.121000
     12 H41        -0.3620    3.2450    0.1010 DU        1 CYX      0.081000
     13 H42         1.1020    2.4090    0.2230 ha        1 CYX      0.107000
     14 H51         1.0980    0.1490    0.9360 hc        1 CYX      0.122500
     15 H52        -0.2760   -0.6130    1.2090 hc        1 CYX      0.122500
     16 H61         0.8710   -0.2050   -1.3570 hc        1 CYX      0.054000
     17 H62        -0.5500   -0.8900   -1.1310 hc        1 CYX      0.054000
@<TRIPOS>BOND
     1    1    3 1   
     2    1   11 1   
     3    2    4 1   
     4    2    5 1   
     5    4   13 1   
     6    5    6 1   
     7    5   14 1   
     8    5   15 1   
     9    6    7 1   
    10    6   16 1   
    11    6   17 1   
    12    7    8 1   
    13    7    9 1   
    14    7   10 1   
@<TRIPOS>SUBSTRUCTURE
     1 CYX         1 TEMP              0 ****  ****    0 ROOT
