@<TRIPOS>MOLECULE
CYX
   17    16     1     0     0
SMALL
bcc


@<TRIPOS>ATOM
      1 C1          0.1010    0.2340    0.1920 c         1 CYX      0.572100
      2 C2          1.5250   -0.1390    0.0940 ce        1 CYX     -0.148400
      3 O3         -0.7640   -0.0600   -0.6490 o         1 CYX     -0.629100
      4 C4          2.0250   -0.6750   -1.0270 c2        1 CYX     -0.239000
      5 C5          2.3340    0.1550    1.3100 c3        1 CYX     -0.048200
      6 C6          2.4710    1.6060    1.6190 c3        1 CYX     -0.267600
      7 P7          3.3500    1.5840    3.2250 p5        1 CYX      1.211700
      8 O8          3.4790    3.0470    3.5740 o         1 CYX     -0.954500
      9 O9          4.6470    0.8770    2.9000 o         1 CYX     -0.954500
     10 O10         2.4030    0.7910    4.1010 o         1 CYX     -0.954500
     11 H11        -0.1670    0.8120    1.1080 h4        1 CYX      0.028200
     12 H41         1.4060   -0.8620   -1.9140 ha        1 CYX      0.094000
     13 H42         3.0840   -0.9440   -1.1160 ha        1 CYX      0.094000
     14 H51         3.3720   -0.2710    1.2220 hc        1 CYX      0.083200
     15 H52         1.8560   -0.3310    2.2130 hc        1 CYX      0.083200
     16 H61         1.5020    2.1220    1.7570 hc        1 CYX      0.014700
     17 H62         3.0830    2.1530    0.8770 hc        1 CYX      0.014700
@<TRIPOS>BOND
     1    1    2 1   
     2    1    3 2   
     3    1   11 1   
     4    2    4 2   
     5    2    5 1   
     6    4   12 1   
     7    4   13 1   
     8    5    6 1   
     9    5   14 1   
    10    5   15 1   
    11    6    7 1   
    12    6   16 1   
    13    6   17 1   
    14    7    8 1   
    15    7    9 1   
    16    7   10 1   
@<TRIPOS>SUBSTRUCTURE
     1 CYX         1 TEMP              0 ****  ****    0 ROOT
