@<TRIPOS>MOLECULE
CYY
   25    25     1     0     0
SMALL
bcc


@<TRIPOS>ATOM
      1 C1          0.9720   -0.2220    1.2530 c3        1 CYY      0.156000
      2 C2          1.6910    0.2590   -0.0160 c3        1 CYY     -0.114400
      3 C3          1.0180   -0.2890   -1.2820 c3        1 CYY      0.156000
      4 C4         -0.4410    0.2260   -1.3210 c3        1 CYY      0.131600
      5 C5         -1.1850   -0.2390   -0.0610 c3        1 CYY      0.111100
      6 C6         -0.4940    0.2680    1.2140 c3        1 CYY      0.131600
      7 N1          1.6220    0.1770    2.4890 n3        1 CYY     -0.912800
      8 N3          1.7620    0.0950   -2.4720 n3        1 CYY     -0.912800
      9 O4         -1.0530   -0.3320   -2.4740 oh        1 CYY     -0.613300
     10 O5         -2.4960    0.2960   -0.1630 oh        1 CYY     -0.613800
     11 O6         -1.2700   -0.2600    2.2790 oh        1 CYY     -0.613300
     12 H1          0.9460   -1.3530    1.2490 h1        1 CYY      0.049700
     13 H21         1.6960    1.3790   -0.0500 hc        1 CYY      0.054700
     14 H22         2.7580   -0.0840    0.0110 hc        1 CYY      0.054700
     15 H3          0.9610   -1.4180   -1.1840 h1        1 CYY      0.049700
     16 H4         -0.4670    1.3490   -1.3870 h1        1 CYY      0.055700
     17 H5         -1.2450   -1.3630   -0.0370 h1        1 CYY      0.060700
     18 H6         -0.5340    1.3930    1.2500 h1        1 CYY      0.055700
     19 HN11        2.5110   -0.2750    2.5740 hn        1 CYY      0.357300
     20 HN12        1.7570    1.1690    2.5150 hn        1 CYY      0.357300
     21 HN31        2.5150   -0.5450   -2.6230 hn        1 CYY      0.357300
     22 HN32        1.1590    0.0960   -3.2720 hn        1 CYY      0.357300
     23 HO4        -1.9850   -0.0780   -2.4400 ho        1 CYY      0.427500
     24 HO5        -2.9480    0.0800    0.6630 ho        1 CYY      0.429000
     25 HO6        -0.7930   -0.0940    3.1020 ho        1 CYY      0.427500
@<TRIPOS>BOND
     1    1    2 1   
     2    1    6 1   
     3    1    7 1   
     4    1   12 1   
     5    2    3 1   
     6    2   13 1   
     7    2   14 1   
     8    3    4 1   
     9    3    8 1   
    10    3   15 1   
    11    4    5 1   
    12    4    9 1   
    13    4   16 1   
    14    5    6 1   
    15    5   10 1   
    16    5   17 1   
    17    6   11 1   
    18    6   18 1   
    19    7   19 1   
    20    7   20 1   
    21    8   21 1   
    22    8   22 1   
    23    9   23 1   
    24   10   24 1   
    25   11   25 1   
@<TRIPOS>SUBSTRUCTURE
     1 CYY         1 TEMP              0 ****  ****    0 ROOT
