@<TRIPOS>MOLECULE
CYY
   27    27     1     0     0
SMALL
bcc


@<TRIPOS>ATOM
      1 C1          0.0430   -0.0410   -0.0550 c3        1 CYY      0.122500
      2 C2          1.5770   -0.0560   -0.0670 c3        1 CYY     -0.131400
      3 C3          2.0770   -0.0410    1.3830 c3        1 CYY      0.122500
      4 C4          1.5600   -1.2990    2.1320 c3        1 CYY      0.112100
      5 C5          0.0200   -1.2790    2.1350 c3        1 CYY      0.090100
      6 C6         -0.4910   -1.2990    0.6810 c3        1 CYY      0.112100
      7 N1         -0.5460    0.0430   -1.4320 n4        1 CYY     -0.834600
      8 N3          3.5720    0.0430    1.4790 n4        1 CYY     -0.834600
      9 O4          2.0750   -1.2020    3.4430 oh        1 CYY     -0.613800
     10 O5         -0.4050   -2.4840    2.7360 oh        1 CYY     -0.577800
     11 O6         -1.8990   -1.2020    0.6340 oh        1 CYY     -0.613800
     12 H1         -0.3310    0.8780    0.4980 hx        1 CYY      0.136700
     13 H21         1.9500   -0.9760   -0.5950 hc        1 CYY      0.095700
     14 H22         1.9650    0.8450   -0.6160 hc        1 CYY      0.095700
     15 H3          1.6790    0.8780    1.9200 hx        1 CYY      0.136700
     16 H4          1.9260   -2.2450    1.6390 h1        1 CYY      0.090700
     17 H5         -0.3670   -0.3770    2.6820 h1        1 CYY      0.095700
     18 H6         -0.1480   -2.2450    0.1730 h1        1 CYY      0.090700
     19 HN11       -0.3240    0.9440   -1.8680 hn        1 CYY      0.481800
     20 HN12       -0.1990   -0.7170   -2.0270 hn        1 CYY      0.481800
     21 HN31        3.8320   -0.0530    2.4780 hn        1 CYY      0.481800
     22 HN32        3.9080    0.9440    1.1250 hn        1 CYY      0.481800
     23 HO4         1.7340   -1.9560    3.9540 ho        1 CYY      0.480000
     24 HO5        -0.9510   -2.2690    3.5080 ho        1 CYY      0.457000
     25 HO6        -2.2660   -1.9560    1.1260 ho        1 CYY      0.480000
     26 H13        -1.5750   -0.0530   -1.3450 hn        1 CYY      0.481800
     27 H33         4.0160   -0.7170    0.9540 hn        1 CYY      0.481800
@<TRIPOS>BOND
     1    1    2 1   
     2    1    6 1   
     3    1    7 1   
     4    1   12 1   
     5    2    3 1   
     6    2   13 1   
     7    2   14 1   
     8    3    4 1   
     9    3    8 1   
    10    3   15 1   
    11    4    5 1   
    12    4    9 1   
    13    4   16 1   
    14    5    6 1   
    15    5   10 1   
    16    5   17 1   
    17    6   11 1   
    18    6   18 1   
    19    7   19 1   
    20    7   20 1   
    21    7   26 1   
    22    8   21 1   
    23    8   22 1   
    24    8   27 1   
    25    9   23 1   
    26   10   24 1   
    27   11   25 1   
@<TRIPOS>SUBSTRUCTURE
     1 CYY         1 TEMP              0 ****  ****    0 ROOT
