@<TRIPOS>MOLECULE
CYY
   25    25     1     0     0
SMALL
bcc


@<TRIPOS>ATOM
      1 C1         -0.7610    0.5950   -1.1340 c3        1 CYY      0.156000
      2 C2          0.7580    0.5950   -1.1340 c3        1 CYY     -0.114400
      3 C3          1.3390    0.5950    0.2690 c3        1 CYY      0.156000
      4 C4          0.7570   -0.5110    1.1400 c3        1 CYY      0.131600
      5 C5         -0.7620   -0.5110    1.1400 c3        1 CYY      0.111100
      6 C6         -1.3430   -0.5110   -0.2640 c3        1 CYY      0.131600
      7 N1         -1.2230    0.4180   -2.4780 n3        1 CYY     -0.912800
      8 N3          2.7570    0.4180    0.1830 n3        1 CYY     -0.912800
      9 O4          1.2150   -0.3350    2.4690 oh        1 CYY     -0.613300
     10 O5         -1.2200   -1.6660    1.8260 oh        1 CYY     -0.613800
     11 O6         -2.7460   -0.3360   -0.1790 oh        1 CYY     -0.613300
     12 H1         -1.0760    1.4570   -0.8030 h1        1 CYY      0.049700
     13 H21         1.0730   -0.1990   -1.6060 hc        1 CYY      0.054700
     14 H22         1.0730    1.3890   -1.6060 hc        1 CYY      0.054700
     15 H3          1.1530    1.4570    0.6880 h1        1 CYY      0.049700
     16 H4          1.0730   -1.3730    0.8080 h1        1 CYY      0.055700
     17 H5         -1.0780    0.2830    1.6120 h1        1 CYY      0.060700
     18 H6         -1.1570   -1.3730   -0.6820 h1        1 CYY      0.055700
     19 HN11       -2.0880    0.7000   -2.5410 hn        1 CYY      0.357300
     20 HN12       -0.7020    0.9060   -3.0460 hn        1 CYY      0.357300
     21 HN31        3.1470    0.7010    0.9580 hn        1 CYY      0.357300
     22 HN32        3.0820    0.9060   -0.5160 hn        1 CYY      0.357300
     23 HO4         1.5760   -1.0920    2.7610 ho        1 CYY      0.427500
     24 HO5        -1.6940   -1.4200    2.5350 ho        1 CYY      0.429000
     25 HO6        -3.1530   -1.0930   -0.4000 ho        1 CYY      0.427500
@<TRIPOS>BOND
     1    1    2 1   
     2    1    6 1   
     3    1    7 1   
     4    1   12 1   
     5    2    3 1   
     6    2   13 1   
     7    2   14 1   
     8    3    4 1   
     9    3    8 1   
    10    3   15 1   
    11    4    5 1   
    12    4    9 1   
    13    4   16 1   
    14    5    6 1   
    15    5   10 1   
    16    5   17 1   
    17    6   11 1   
    18    6   18 1   
    19    7   19 1   
    20    7   20 1   
    21    8   21 1   
    22    8   22 1   
    23    9   23 1   
    24   10   24 1   
    25   11   25 1   
@<TRIPOS>SUBSTRUCTURE
     1 CYY         1 TEMP              0 ****  ****    0 ROOT
