@<TRIPOS>MOLECULE
CYY
   27    27     1     0     0
SMALL
bcc


@<TRIPOS>ATOM
      1 C1          0.0540    0.0180   -0.0300 c3        1 CYY      0.122500
      2 C2          1.5850   -0.0680   -0.0680 c3        1 CYY     -0.131400
      3 C3          2.1140   -0.0310    1.3710 c3        1 CYY      0.122500
      4 C4          1.5550   -1.2400    2.1680 c3        1 CYY      0.112100
      5 C5          0.0180   -1.1500    2.1980 c3        1 CYY      0.090100
      6 C6         -0.5210   -1.1910    0.7550 c3        1 CYY      0.112100
      7 N1         -0.5560    0.0860   -1.3990 nz        1 CYY     -0.834600
      8 N3          3.6120   -0.0110    1.4380 nz        1 CYY     -0.834600
      9 O4          2.0990   -1.1260    3.4670 oh        1 CYY     -0.613800
     10 O5         -0.4500   -2.3160    2.8440 oh        1 CYY     -0.577800
     11 O6         -1.9240   -1.0320    0.7290 oh        1 CYY     -0.613800
     12 H1         -0.2670    0.9690    0.5010 hx        1 CYY      0.136700
     13 H21         2.0030    0.7970   -0.6520 hc        1 CYY      0.095700
     14 H22         1.9070   -1.0190   -0.5740 hc        1 CYY      0.095700
     15 H3          1.7680    0.9210    1.8850 hx        1 CYY      0.136700
     16 H4          1.8690   -2.2160    1.7000 h1        1 CYY      0.090700
     17 H5         -0.3170   -0.2140    2.7230 h1        1 CYY      0.095700
     18 H6         -0.2310   -2.1670    0.2710 h1        1 CYY      0.090700
     19 HN11       -0.2550   -0.7070   -1.9750 hn        1 CYY      0.481800
     20 HN12       -0.3020    0.9620   -1.8670 hn        1 CYY      0.481800
     21 HN31        3.9820    0.8620    1.0500 hn        1 CYY      0.481800
     22 HN32        4.0120   -0.8070    0.9290 hn        1 CYY      0.481800
     23 HO4         1.7340   -1.8490    4.0070 ho        1 CYY      0.480000
     24 HO5        -0.9680   -2.0520    3.6190 ho        1 CYY      0.457000
     25 HO6        -2.3150   -1.7530    1.2520 ho        1 CYY      0.480000
     26 H13        -1.5860    0.0400   -1.2900 hn        1 CYY      0.481800
     27 H33         3.8870   -0.0880    2.4350 hn        1 CYY      0.481800
@<TRIPOS>BOND
     1    1    2 1   
     2    1    6 1   
     3    1    7 1   
     4    1   12 1   
     5    2    3 1   
     6    2   13 1   
     7    2   14 1   
     8    3    4 1   
     9    3    8 1   
    10    3   15 1   
    11    4    5 1   
    12    4    9 1   
    13    4   16 1   
    14    5    6 1   
    15    5   10 1   
    16    5   17 1   
    17    6   11 1   
    18    6   18 1   
    19    7   19 1   
    20    7   20 1   
    21    7   26 1   
    22    8   21 1   
    23    8   22 1   
    24    8   27 1   
    25    9   23 1   
    26   10   24 1   
    27   11   25 1   
@<TRIPOS>SUBSTRUCTURE
     1 CYY         1 TEMP              0 ****  ****    0 ROOT
