@<TRIPOS>MOLECULE
CYY
   27    27     1     0     0
SMALL
bcc


@<TRIPOS>ATOM
      1 C1          0.0500    0.0120   -0.0280 c3        1 CYY      0.122500
      2 C2          1.5810   -0.0700   -0.0640 c3        1 CYY     -0.131400
      3 C3          2.1070   -0.0300    1.3770 c3        1 CYY      0.122500
      4 C4          1.5510   -1.2400    2.1740 c3        1 CYY      0.111600
      5 C5          0.0130   -1.1550    2.2010 c3        1 CYY      0.090100
      6 C6         -0.5230   -1.1980    0.7570 c3        1 CYY      0.111600
      7 N1         -0.5590    0.0770   -1.3980 n4        1 CYY     -0.834600
      8 N3          3.6050   -0.0070    1.4460 n4        1 CYY     -0.834600
      9 O4          2.0920   -1.1240    3.4730 oh        1 CYY     -0.613800
     10 O5         -0.4520   -2.3210    2.8480 oh        1 CYY     -0.577800
     11 O6         -1.9270   -1.0430    0.7290 oh        1 CYY     -0.613800
     12 H1         -0.2750    0.9630    0.5020 hx        1 CYY      0.136700
     13 H21         1.9060   -1.0210   -0.5680 hc        1 CYY      0.095700
     14 H22         1.9970    0.7960   -0.6480 hc        1 CYY      0.095700
     15 H3          1.7580    0.9210    1.8890 hx        1 CYY      0.136700
     16 H4          1.8670   -2.2160    1.7060 h1        1 CYY      0.090700
     17 H5         -0.3260   -0.2190    2.7240 h1        1 CYY      0.095700
     18 H6         -0.2300   -2.1740    0.2740 h1        1 CYY      0.090700
     19 HN11       -0.3070    0.9540   -1.8660 hn        1 CYY      0.481800
     20 HN12       -0.2550   -0.7150   -1.9720 hn        1 CYY      0.481800
     21 HN31        3.9740    0.8670    1.0570 hn        1 CYY      0.481800
     22 HN32        4.0080   -0.8020    0.9380 hn        1 CYY      0.481800
     23 HO4         1.7270   -1.8460    4.0130 ho        1 CYY      0.480000
     24 HO5        -0.9770   -2.0580    3.6190 ho        1 CYY      0.457000
     25 HO6        -2.3170   -1.7650    1.2500 ho        1 CYY      0.480000
     26 H13        -1.5890    0.0290   -1.2910 hn        1 CYY      0.481800
     27 H33         3.8790   -0.0820    2.4430 hn        1 CYY      0.481800
@<TRIPOS>BOND
     1    1    2 1   
     2    1    6 1   
     3    1    7 1   
     4    1   12 1   
     5    2    3 1   
     6    2   13 1   
     7    2   14 1   
     8    3    4 1   
     9    3    8 1   
    10    3   15 1   
    11    4    5 1   
    12    4    9 1   
    13    4   16 1   
    14    5    6 1   
    15    5   10 1   
    16    5   17 1   
    17    6   11 1   
    18    6   18 1   
    19    7   19 1   
    20    7   20 1   
    21    7   26 1   
    22    8   21 1   
    23    8   22 1   
    24    8   27 1   
    25    9   23 1   
    26   10   24 1   
    27   11   25 1   
@<TRIPOS>SUBSTRUCTURE
     1 CYY         1 TEMP              0 ****  ****    0 ROOT
