@<TRIPOS>MOLECULE
CYZ
   40    38     1     0     0
SMALL
bcc


@<TRIPOS>ATOM
      1 C1          0.6980    1.5900    1.1270 c3        1 CYZ     -0.149000
      2 C2          1.6610    2.0270    1.7740 c3        1 CYZ     -0.081000
      3 C3          1.4460    2.3300    2.8160 c2        1 CYZ     -0.186000
      4 C4          0.3430    3.2780    2.7550 c1        1 CYZ     -0.171000
      5 C5          0.1420    3.3870    1.6850 c2        1 CYZ     -0.098000
      6 C6         -0.2370    2.4770    1.1190 c3        1 CYZ     -0.158000
      7 C7          1.7050    3.0070    1.3180 c3        1 CYZ     -0.158000
      8 C8          0.0980    0.1220    1.8970 c3        1 CYZ      0.176000
      9 N1          1.0810   -0.8290    1.8140 n3        1 CYZ     -0.884000
     10 S1          1.4120   -1.3880    0.4650 s4        1 CYZ      2.091800
     11 C9          0.0430   -1.4820   -0.5400 c1        1 CYZ     -0.925000
     12 C10        -1.1820   -0.9500   -0.0470 c2        1 CYZ      0.269000
     13 N2         -1.1590   -0.1840    1.3220 n3        1 CYZ     -0.337000
     14 C11         0.0780   -2.0970   -1.7830 c1        1 CYZ      0.137000
     15 C12        -1.0760   -2.1920   -2.5410 c1        1 CYZ     -0.887000
     16 C13        -2.2900   -1.6630   -2.0500 c1        1 CYZ      0.135000
     17 C14        -2.3280   -1.0460   -0.8040 c1        1 CYZ     -0.254000
     18 CL         -3.7360   -1.7580   -3.0190 cl        1 CYZ      0.005000
     19 S2         -1.0140   -2.9030   -4.1690 s4        1 CYZ      2.087800
     20 O1          2.0570   -2.6630    0.5800 o         1 CYZ     -0.535400
     21 O2          2.4140   -0.5700   -0.1610 o         1 CYZ     -0.535400
     22 O3          0.3100   -2.8070   -4.7300 o         1 CYZ     -0.540400
     23 O4         -1.7780   -2.1180   -5.1150 o         1 CYZ     -0.540400
     24 N3         -1.5360   -4.4680   -4.1280 n2        1 CYZ     -0.953000
     25 H11A        0.9770    1.3930    0.2060 hc        1 CYZ      0.126000
     26 H21         2.4960    1.5100    1.6620 hc        1 CYZ      0.131000
     27 H31A        2.1860    2.4760    3.4490 ha        1 CYZ      0.143000
     28 H41         0.3400    4.0660    3.3380 ha        1 CYZ      0.146000
     29 H51        -0.1330    4.2750    1.3610 ha        1 CYZ      0.119000
     30 H61        -0.4550    2.7270    0.1860 hc        1 CYZ      0.086000
     31 H62        -1.0450    2.1170    1.5670 hc        1 CYZ      0.086000
     32 H71         1.8540    2.9590    0.3560 hc        1 CYZ      0.100000
     33 H72         2.3510    3.6020    1.7750 hc        1 CYZ      0.100000
     34 H81        -0.0470    0.3150    2.8350 h2        1 CYZ      0.119000
     35 HN1         1.6530   -0.9670    2.5250 hn        1 CYZ      0.259000
     36 HN2        -1.6780   -0.6410    1.9390 hn        1 CYZ      0.246000
     37 H11         0.9170   -2.4630   -2.1230 ha        1 CYZ      0.185000
     38 H14        -3.1720   -0.6790   -0.4650 ha        1 CYZ      0.155000
     39 H31        -1.0610   -5.0930   -3.6680 hn        1 CYZ      0.245500
     40 H32        -2.3360   -4.6990   -4.5300 hn        1 CYZ      0.245500
@<TRIPOS>BOND
     1    1    2 1   
     2    1    6 1   
     3    1    8 1   
     4    1   25 1   
     5    2    3 1   
     6    2    7 1   
     7    2   26 1   
     8    3    4 1   
     9    3   27 1   
    10    4   28 1   
    11    5    6 1   
    12    5    7 1   
    13    5   29 1   
    14    6   30 1   
    15    6   31 1   
    16    7   32 1   
    17    7   33 1   
    18    8    9 1   
    19    8   13 1   
    20    8   34 1   
    21    9   10 1   
    22    9   35 1   
    23   10   20 1   
    24   10   21 1   
    25   11   12 1   
    26   11   14 1   
    27   12   13 1   
    28   12   17 1   
    29   13   36 1   
    30   14   37 1   
    31   15   16 1   
    32   15   19 1   
    33   16   18 1   
    34   17   38 1   
    35   19   22 1   
    36   19   23 1   
    37   24   39 1   
    38   24   40 1   
@<TRIPOS>SUBSTRUCTURE
     1 CYZ         1 TEMP              0 ****  ****    0 ROOT
