@<TRIPOS>MOLECULE
CYZ
   41    44     1     0     0
SMALL
bcc


@<TRIPOS>ATOM
      1 C1          0.2480    0.2550   -0.0400 c3        1 CYZ     -0.107700
      2 C2          1.7770    0.0300    0.1520 c3        1 CYZ     -0.039500
      3 C3          2.0030   -0.2210    1.6370 c2        1 CYZ     -0.207200
      4 C4          1.7740    0.9420    2.2920 c2        1 CYZ     -0.158200
      5 C5          1.3800    1.9850    1.2540 c3        1 CYZ     -0.052500
      6 C6         -0.0230    1.5560    0.7530 c3        1 CYZ     -0.081400
      7 C7          2.2620    1.5150    0.0550 c3        1 CYZ     -0.076400
      8 C8         -0.5720   -0.9520    0.4860 c3        1 CYZ      0.520700
      9 N1         -0.2300   -2.1940   -0.1700 n3        1 CYZ     -0.918100
     10 S1         -0.7320   -2.5700   -1.6610 sy        1 CYZ      1.529200
     11 C9         -2.3820   -2.0970   -1.5390 ca        1 CYZ     -0.445500
     12 C10        -2.8520   -1.1910   -0.5280 ca        1 CYZ      0.383600
     13 N2         -2.0270   -0.6730    0.4020 nh        1 CYZ     -0.723600
     14 C11        -3.2710   -2.5890   -2.4650 ca        1 CYZ      0.174000
     15 C12        -4.6490   -2.2510   -2.5100 ca        1 CYZ     -0.652500
     16 C13        -5.1000   -1.4000   -1.4530 ca        1 CYZ      0.200400
     17 C14        -4.2590   -0.8750   -0.5110 ca        1 CYZ     -0.231000
     18 CL         -6.7600   -1.0560   -1.3370 cl        1 CYZ     -0.045400
     19 S2         -5.5090   -2.7520   -3.7460 sy        1 CYZ      1.506200
     20 O1         -0.6980   -3.9540   -1.8580 o         1 CYZ     -0.626300
     21 O2         -0.1440   -1.7670   -2.6370 o         1 CYZ     -0.626300
     22 O3         -4.8490   -3.6400   -4.5740 o         1 CYZ     -0.570300
     23 O4         -6.4600   -1.9040   -4.2650 o         1 CYZ     -0.570300
     24 N3         -6.6580   -3.9760   -2.7990 n4        1 CYZ     -0.783500
     25 H11A        0.0430    0.4130   -1.1320 hc        1 CYZ      0.087700
     26 H21         2.2350   -0.6900   -0.5480 hc        1 CYZ      0.090700
     27 H31A        2.3200   -1.1830    2.0310 ha        1 CYZ      0.148000
     28 H41         1.8420    1.1630    3.3550 ha        1 CYZ      0.156000
     29 H51         1.4670    3.0420    1.5600 hc        1 CYZ      0.093700
     30 H61        -0.7120    1.4040    1.6170 hc        1 CYZ      0.048700
     31 H62        -0.4540    2.3390    0.0850 hc        1 CYZ      0.048700
     32 H71         1.9980    2.0030   -0.9070 hc        1 CYZ      0.069200
     33 H72         3.3510    1.6210    0.2490 hc        1 CYZ      0.069200
     34 H81        -0.3500   -1.0570    1.6000 h2        1 CYZ      0.104700
     35 HN1         0.2840   -2.8210    0.4040 hn        1 CYZ      0.481800
     36 HN2        -2.3710    0.0070    1.0480 hn        1 CYZ      0.474800
     37 H11        -2.8850   -3.2930   -3.2390 ha        1 CYZ      0.187000
     38 H14        -4.6520   -0.2070    0.2750 ha        1 CYZ      0.180000
     39 H31        -7.6330   -3.7170   -2.9290 hn        1 CYZ      0.453133
     40 H32        -6.4670   -3.9880   -1.8020 hn        1 CYZ      0.453133
     41 H33        -6.5330   -4.9210   -3.1560 hn        1 CYZ      0.453133
@<TRIPOS>BOND
     1    1    2 1   
     2    1    6 1   
     3    1    8 1   
     4    1   25 1   
     5    2    3 1   
     6    2    7 1   
     7    2   26 1   
     8    3    4 2   
     9    3   27 1   
    10    4    5 1   
    11    4   28 1   
    12    5    6 1   
    13    5    7 1   
    14    5   29 1   
    15    6   30 1   
    16    6   31 1   
    17    7   32 1   
    18    7   33 1   
    19    8    9 1   
    20    8   13 1   
    21    8   34 1   
    22    9   10 1   
    23    9   35 1   
    24   10   11 1   
    25   10   20 2   
    26   10   21 2   
    27   11   12 ar  
    28   11   14 ar  
    29   12   13 1   
    30   12   17 ar  
    31   13   36 1   
    32   14   15 ar  
    33   14   37 1   
    34   15   16 ar  
    35   15   19 1   
    36   16   17 ar  
    37   16   18 1   
    38   17   38 1   
    39   19   22 2   
    40   19   23 2   
    41   19   24 1   
    42   24   39 1   
    43   24   40 1   
    44   24   41 1   
@<TRIPOS>SUBSTRUCTURE
     1 CYZ         1 TEMP              0 ****  ****    0 ROOT
