@<TRIPOS>MOLECULE
CYZ
   41    44     1     0     0
SMALL
bcc


@<TRIPOS>ATOM
      1 C1          0.2480    0.2530   -0.0360 c3        1 CYZ     -0.107700
      2 C2          1.7760    0.0270    0.1580 c3        1 CYZ     -0.039500
      3 C3          1.9990   -0.2250    1.6430 c2        1 CYZ     -0.207200
      4 C4          1.7710    0.9370    2.2990 c2        1 CYZ     -0.158200
      5 C5          1.3800    1.9810    1.2610 c3        1 CYZ     -0.052500
      6 C6         -0.0240    1.5540    0.7580 c3        1 CYZ     -0.081400
      7 C7          2.2630    1.5110    0.0630 c3        1 CYZ     -0.076400
      8 C8         -0.5740   -0.9540    0.4880 c3        1 CYZ      0.520700
      9 N1         -0.2330   -2.1960   -0.1670 n3        1 CYZ     -0.918100
     10 S1         -0.7320   -2.5700   -1.6590 sy        1 CYZ      1.529200
     11 C9         -2.3810   -2.0960   -1.5400 ca        1 CYZ     -0.445500
     12 C10        -2.8520   -1.1900   -0.5300 ca        1 CYZ      0.383600
     13 N2         -2.0290   -0.6730    0.4020 nh        1 CYZ     -0.723600
     14 C11        -3.2690   -2.5860   -2.4690 ca        1 CYZ      0.174000
     15 C12        -4.6460   -2.2470   -2.5170 ca        1 CYZ     -0.652500
     16 C13        -5.0990   -1.3960   -1.4600 ca        1 CYZ      0.200400
     17 C14        -4.2590   -0.8730   -0.5160 ca        1 CYZ     -0.231000
     18 CL         -6.7590   -1.0510   -1.3460 cl        1 CYZ     -0.045400
     19 S2         -5.5050   -2.7470   -3.7540 sy        1 CYZ      1.506200
     20 O1         -0.6990   -3.9550   -1.8570 o         1 CYZ     -0.626300
     21 O2         -0.1410   -1.7680   -2.6340 o         1 CYZ     -0.626300
     22 O3         -4.8430   -3.6340   -4.5820 o         1 CYZ     -0.570300
     23 O4         -6.4540   -1.8970   -4.2740 o         1 CYZ     -0.570300
     24 N3         -6.6560   -3.9700   -2.8110 n4        1 CYZ     -0.783500
     25 H11A        0.0450    0.4120   -1.1280 hc        1 CYZ      0.087700
     26 H21         2.2350   -0.6930   -0.5410 hc        1 CYZ      0.090700
     27 H31A        2.3140   -1.1890    2.0370 ha        1 CYZ      0.148000
     28 H41         1.8370    1.1580    3.3620 ha        1 CYZ      0.156000
     29 H51         1.4660    3.0380    1.5670 hc        1 CYZ      0.093700
     30 H61        -0.4520    2.3380    0.0890 hc        1 CYZ      0.048700
     31 H62        -0.7130    1.4020    1.6210 hc        1 CYZ      0.048700
     32 H71         2.0010    2.0000   -0.8990 hc        1 CYZ      0.069200
     33 H72         3.3520    1.6160    0.2590 hc        1 CYZ      0.069200
     34 H81        -0.3550   -1.0600    1.6030 h2        1 CYZ      0.104700
     35 HN1         0.2810   -2.8230    0.4070 hn        1 CYZ      0.481800
     36 HN2        -2.3730    0.0070    1.0480 hn        1 CYZ      0.474800
     37 H11        -2.8820   -3.2910   -3.2430 ha        1 CYZ      0.187000
     38 H14        -4.6540   -0.2050    0.2710 ha        1 CYZ      0.180000
     39 H31        -6.5320   -4.9150   -3.1680 hn        1 CYZ      0.453133
     40 H32        -6.4680   -3.9830   -1.8140 hn        1 CYZ      0.453133
     41 H33        -7.6320   -3.7100   -2.9430 hn        1 CYZ      0.453133
@<TRIPOS>BOND
     1    1    2 1   
     2    1    6 1   
     3    1    8 1   
     4    1   25 1   
     5    2    3 1   
     6    2    7 1   
     7    2   26 1   
     8    3    4 2   
     9    3   27 1   
    10    4    5 1   
    11    4   28 1   
    12    5    6 1   
    13    5    7 1   
    14    5   29 1   
    15    6   30 1   
    16    6   31 1   
    17    7   32 1   
    18    7   33 1   
    19    8    9 1   
    20    8   13 1   
    21    8   34 1   
    22    9   10 1   
    23    9   35 1   
    24   10   11 1   
    25   10   20 2   
    26   10   21 2   
    27   11   12 ar  
    28   11   14 ar  
    29   12   13 1   
    30   12   17 ar  
    31   13   36 1   
    32   14   15 ar  
    33   14   37 1   
    34   15   16 ar  
    35   15   19 1   
    36   16   17 ar  
    37   16   18 1   
    38   17   38 1   
    39   19   22 2   
    40   19   23 2   
    41   19   24 1   
    42   24   39 1   
    43   24   40 1   
    44   24   41 1   
@<TRIPOS>SUBSTRUCTURE
     1 CYZ         1 TEMP              0 ****  ****    0 ROOT
