@<TRIPOS>MOLECULE
CYZ
   40    43     1     0     0
SMALL
bcc


@<TRIPOS>ATOM
      1 C1          0.5400    0.5570   -3.1360 c3        1 CYZ     -0.109700
      2 C2         -0.2860    0.7070   -4.4460 c3        1 CYZ     -0.037500
      3 C3         -0.0140   -0.5350   -5.2840 c2        1 CYZ     -0.190200
      4 C4          1.2670   -0.4700   -5.7170 c2        1 CYZ     -0.175200
      5 C5          1.8740    0.8120   -5.1630 c3        1 CYZ     -0.054500
      6 C6          2.0050    0.5770   -3.6360 c3        1 CYZ     -0.079400
      7 C7          0.6170    1.7380   -5.1990 c3        1 CYZ     -0.079400
      8 C8          0.1840   -0.7450   -2.3660 c3        1 CYZ      0.531700
      9 N1         -1.2200   -0.8140   -2.0310 n3        1 CYZ     -0.911100
     10 S1         -1.8710    0.0100   -0.7860 sy        1 CYZ      1.536200
     11 C9         -0.6830   -0.2050    0.3890 ca        1 CYZ     -0.480500
     12 C10         0.6530   -0.5990    0.0900 ca        1 CYZ      0.350600
     13 N2          1.0420   -0.9210   -1.1850 nh        1 CYZ     -0.781600
     14 C11        -1.0220    0.0370    1.7210 ca        1 CYZ      0.137000
     15 C12        -0.1210   -0.0670    2.7810 ca        1 CYZ     -0.442500
     16 C13         1.1950   -0.4570    2.4570 ca        1 CYZ      0.213400
     17 C14         1.5910   -0.7130    1.1580 ca        1 CYZ     -0.254000
     18 CL          2.3550   -0.6360    3.6890 cl        1 CYZ     -0.073400
     19 S2         -0.6630    0.3270    4.3450 sy        1 CYZ      1.532200
     20 O1         -3.0660   -0.6190   -0.3990 o         1 CYZ     -0.647800
     21 O2         -1.9710    1.3740   -1.0940 o         1 CYZ     -0.647800
     22 O3         -2.0480    0.5890    4.2500 o         1 CYZ     -0.652800
     23 O4          0.1410    1.3530    4.8720 o         1 CYZ     -0.652800
     24 N3         -0.4300   -1.0220    5.1700 n3        1 CYZ     -1.026700
     25 H11A        0.3390    1.4490   -2.4860 hc        1 CYZ      0.086700
     26 H21        -1.3450    0.9830   -4.2990 hc        1 CYZ      0.091700
     27 H31A       -0.7670   -1.2980   -5.4680 ha        1 CYZ      0.143000
     28 H41         1.8260   -1.1690   -6.3340 ha        1 CYZ      0.146000
     29 H51         2.7860    1.1810   -5.6620 hc        1 CYZ      0.079700
     30 H61         2.5700    1.4130   -3.1600 hc        1 CYZ      0.046700
     31 H62         2.5430   -0.3790   -3.4370 hc        1 CYZ      0.046700
     32 H71         0.7550    2.6890   -4.6420 hc        1 CYZ      0.060700
     33 H72         0.2620    1.9480   -6.2300 hc        1 CYZ      0.060700
     34 H81         0.4360   -1.6190   -3.0540 h2        1 CYZ      0.079700
     35 HN1        -1.7230   -1.4980   -2.5420 hn        1 CYZ      0.463800
     36 HN2         2.0140   -1.0170   -1.3740 hn        1 CYZ      0.450800
     37 H11        -2.0730    0.3280    1.9500 ha        1 CYZ      0.185000
     38 H14         2.6300   -1.0090    0.9460 ha        1 CYZ      0.155000
     39 H31         0.3940   -1.2170    5.6810 hn        1 CYZ      0.450300
     40 H32        -1.1030   -1.7430    5.2380 hn        1 CYZ      0.450300
@<TRIPOS>BOND
     1    1    2 1   
     2    1    6 1   
     3    1    8 1   
     4    1   25 1   
     5    2    3 1   
     6    2    7 1   
     7    2   26 1   
     8    3    4 2   
     9    3   27 1   
    10    4    5 1   
    11    4   28 1   
    12    5    6 1   
    13    5    7 1   
    14    5   29 1   
    15    6   30 1   
    16    6   31 1   
    17    7   32 1   
    18    7   33 1   
    19    8    9 1   
    20    8   13 1   
    21    8   34 1   
    22    9   10 1   
    23    9   35 1   
    24   10   11 1   
    25   10   20 2   
    26   10   21 2   
    27   11   12 ar  
    28   11   14 ar  
    29   12   13 1   
    30   12   17 ar  
    31   13   36 1   
    32   14   15 ar  
    33   14   37 1   
    34   15   16 ar  
    35   15   19 1   
    36   16   17 ar  
    37   16   18 1   
    38   17   38 1   
    39   19   22 2   
    40   19   23 2   
    41   19   24 1   
    42   24   39 1   
    43   24   40 1   
@<TRIPOS>SUBSTRUCTURE
     1 CYZ         1 TEMP              0 ****  ****    0 ROOT
