@<TRIPOS>MOLECULE
CYZ
   41    44     1     0     0
SMALL
bcc


@<TRIPOS>ATOM
      1 C1          0.2460    0.2550   -0.0340 c3        1 CYZ     -0.107700
      2 C2          1.7780    0.0340    0.1450 c3        1 CYZ     -0.039500
      3 C3          2.0140   -0.2370    1.6240 c2        1 CYZ     -0.207200
      4 C4          1.7850    0.9150    2.2980 c2        1 CYZ     -0.158200
      5 C5          1.3790    1.9710    1.2770 c3        1 CYZ     -0.052500
      6 C6         -0.0260    1.5430    0.7800 c3        1 CYZ     -0.081400
      7 C7          2.2550    1.5220    0.0660 c3        1 CYZ     -0.076400
      8 C8         -0.5650   -0.9640    0.4800 c3        1 CYZ      0.520700
      9 N1         -0.2220   -2.1950   -0.1950 n7        1 CYZ     -0.918100
     10 S1         -0.7310   -2.5510   -1.6880 sy        1 CYZ      1.529200
     11 C9         -2.3820   -2.0880   -1.5490 ca        1 CYZ     -0.445500
     12 C10        -2.8500   -1.1990   -0.5220 ca        1 CYZ      0.383600
     13 N2         -2.0220   -0.6910    0.4100 nu        1 CYZ     -0.723600
     14 C11        -3.2750   -2.5690   -2.4780 ca        1 CYZ      0.174000
     15 C12        -4.6550   -2.2370   -2.5100 ca        1 CYZ     -0.652500
     16 C13        -5.1030   -1.4040   -1.4370 ca        1 CYZ      0.200400
     17 C14        -4.2580   -0.8890   -0.4930 ca        1 CYZ     -0.231000
     18 Cl         -6.7640   -1.0700   -1.3050 cl        1 CYZ     -0.045400
     19 S2         -5.5200   -2.7240   -3.7470 sy        1 CYZ      1.506200
     20 O1         -0.6930   -3.9330   -1.9060 o         1 CYZ     -0.626300
     21 O2         -0.1530   -1.7320   -2.6570 o         1 CYZ     -0.626300
     22 O3         -4.8610   -3.5960   -4.5920 o         1 CYZ     -0.570300
     23 O4         -6.4780   -1.8720   -4.2470 o         1 CYZ     -0.570300
     24 N3         -6.6580   -3.9660   -2.8120 nz        1 CYZ     -0.783500
     25 H11A        0.0330    0.4270   -1.1220 hc        1 CYZ      0.087700
     26 H21         2.2340   -0.6740   -0.5690 hc        1 CYZ      0.090700
     27 H31A        2.3380   -1.2040    2.0020 ha        1 CYZ      0.148000
     28 H41         1.8580    1.1210    3.3640 ha        1 CYZ      0.156000
     29 H51         1.4630    3.0240    1.5970 hc        1 CYZ      0.093700
     30 H61        -0.7080    1.3750    1.6460 hc        1 CYZ      0.048700
     31 H62        -0.4640    2.3330    0.1260 hc        1 CYZ      0.048700
     32 H71         1.9820    2.0220   -0.8870 hc        1 CYZ      0.069200
     33 H72         3.3450    1.6300    0.2550 hc        1 CYZ      0.069200
     34 H81        -0.3360   -1.0840    1.5920 h2        1 CYZ      0.104700
     35 HN1         0.2990   -2.8280    0.3660 hn        1 CYZ      0.481800
     36 HN2        -2.3640   -0.0210    1.0680 hn        1 CYZ      0.474800
     37 H11        -2.8900   -3.2610   -3.2640 ha        1 CYZ      0.187000
     38 H14        -4.6500   -0.2350    0.3060 ha        1 CYZ      0.180000
     39 H31        -7.6350   -3.7100   -2.9330 hn        1 CYZ      0.453133
     40 H32        -6.5310   -4.9060   -3.1840 hn        1 CYZ      0.453133
     41 H33        -6.4600   -3.9930   -1.8170 hn        1 CYZ      0.453133
@<TRIPOS>BOND
     1    1    2 1   
     2    1    6 1   
     3    1    8 1   
     4    1   25 1   
     5    2    3 1   
     6    2    7 1   
     7    2   26 1   
     8    3    4 2   
     9    3   27 1   
    10    4    5 1   
    11    4   28 1   
    12    5    6 1   
    13    5    7 1   
    14    5   29 1   
    15    6   30 1   
    16    6   31 1   
    17    7   32 1   
    18    7   33 1   
    19    8    9 1   
    20    8   13 1   
    21    8   34 1   
    22    9   10 1   
    23    9   35 1   
    24   10   11 1   
    25   10   20 2   
    26   10   21 2   
    27   11   12 ar  
    28   11   14 ar  
    29   12   13 1   
    30   12   17 ar  
    31   13   36 1   
    32   14   15 ar  
    33   14   37 1   
    34   15   16 ar  
    35   15   19 1   
    36   16   17 ar  
    37   16   18 1   
    38   17   38 1   
    39   19   22 2   
    40   19   23 2   
    41   19   24 1   
    42   24   39 1   
    43   24   40 1   
    44   24   41 1   
@<TRIPOS>SUBSTRUCTURE
     1 CYZ         1 TEMP              0 ****  ****    0 ROOT
