@<TRIPOS>MOLECULE
CZ0
   29    31     1     0     0
SMALL
bcc


@<TRIPOS>ATOM
      1 C1         -2.8030    2.2540   -0.1080 ca        1 CZ0     -0.177000
      2 N1         -2.8230   -1.5510    0.0080 no        1 CZ0      0.324200
      3 C2         -3.2560    0.8930   -0.1300 ca        1 CZ0      0.254100
      4 O2         -3.9010   -1.7990   -0.4830 o         1 CZ0     -0.216500
      5 C3         -2.3350   -0.1580   -0.0530 ca        1 CZ0     -0.285200
      6 O3         -2.1840   -2.4050    0.5550 o         1 CZ0     -0.216500
      7 C4         -1.4720    2.5290   -0.0460 ca        1 CZ0     -0.034000
      8 C5         -0.5020    1.4820   -0.0200 ca        1 CZ0     -0.109000
      9 C6         -0.9200    0.1200   -0.0320 ca        1 CZ0      0.080000
     10 C7          0.0700   -0.8840   -0.0480 ca        1 CZ0     -0.159000
     11 C8          0.8710    1.8070    0.0060 ca        1 CZ0     -0.044000
     12 C9          1.8440    0.8230    0.0030 ca        1 CZ0     -0.140800
     13 C10         1.4170   -0.5350   -0.0320 ca        1 CZ0      0.168100
     14 O11         2.3050   -1.5890   -0.0550 os        1 CZ0     -0.321200
     15 C12         3.6740   -1.3150   -0.0340 c         1 CZ0      0.720800
     16 C13         4.1380    0.0630    0.0130 cc        1 CZ0     -0.249200
     17 C14         3.2700    1.1000    0.0300 cd        1 CZ0      0.038600
     18 O15        -4.6090    0.8020   -0.1910 oh        1 CZ0     -0.486100
     19 O16         4.3300   -2.3540   -0.0610 o         1 CZ0     -0.551500
     20 C17         3.7330    2.5060    0.0770 c3        1 CZ0     -0.074900
     21 H1         -3.5690    3.0440   -0.1420 ha        1 CZ0      0.170000
     22 H4         -1.1180    3.5730   -0.0230 ha        1 CZ0      0.147000
     23 H7         -0.1790   -1.9580   -0.0680 ha        1 CZ0      0.192000
     24 H8          1.1620    2.8700    0.0260 ha        1 CZ0      0.144000
     25 H13         5.2300    0.1950    0.0320 ha        1 CZ0      0.172000
     26 HO15       -4.9200   -0.1150   -0.2900 ho        1 CZ0      0.473000
     27 H17         3.3330    3.0130    0.9910 hc        1 CZ0      0.059700
     28 H17A        4.8490    2.5630    0.1010 hc        1 CZ0      0.059700
     29 H17B        3.3700    3.0610   -0.8250 hc        1 CZ0      0.059700
@<TRIPOS>BOND
     1    1    3 ar  
     2    1    7 ar  
     3    1   21 1   
     4    2    4 1   
     5    2    5 1   
     6    2    6 1   
     7    3    5 ar  
     8    3   18 1   
     9    5    9 ar  
    10    7    8 ar  
    11    7   22 1   
    12    8    9 ar  
    13    8   11 ar  
    14    9   10 ar  
    15   10   13 ar  
    16   10   23 1   
    17   11   12 ar  
    18   11   24 1   
    19   12   13 ar  
    20   12   17 1   
    21   13   14 1   
    22   14   15 1   
    23   15   16 1   
    24   15   19 2   
    25   16   17 2   
    26   16   25 1   
    27   17   20 1   
    28   18   26 1   
    29   20   27 1   
    30   20   28 1   
    31   20   29 1   
@<TRIPOS>SUBSTRUCTURE
     1 CZ0         1 TEMP              0 ****  ****    0 ROOT
