@<TRIPOS>MOLECULE
CZ0
   29    31     1     0     0
SMALL
bcc


@<TRIPOS>ATOM
      1 C1          0.0160   -0.1290   -0.0290 ca        1 CZ0     -0.221000
      2 N1          3.6440   -0.1040    1.1290 no        1 CZ0      0.328200
      3 C2          1.4420   -0.1190   -0.0350 ca        1 CZ0      0.211100
      4 O2          4.2590    0.6760    1.8060 o         1 CZ0     -0.195500
      5 C3          2.1560   -0.0800    1.1630 ca        1 CZ0     -0.217200
      6 O3          4.1890   -0.9060    0.4230 o         1 CZ0     -0.195500
      7 C4         -0.6600   -0.0990    1.1580 ca        1 CZ0     -0.029000
      8 C5          0.0370   -0.0510    2.4000 ca        1 CZ0     -0.105000
      9 C6          1.4610   -0.0310    2.4180 ca        1 CZ0      0.074000
     10 C7          2.1260    0.0210    3.6630 ca        1 CZ0     -0.156000
     11 C8         -0.6860   -0.0220    3.6140 ca        1 CZ0     -0.045000
     12 C9         -0.0390    0.0230    4.8350 ca        1 CZ0     -0.136800
     13 C10         1.3870    0.0440    4.8400 ca        1 CZ0      0.167100
     14 O11         2.1230    0.0890    6.0050 os        1 CZ0     -0.321200
     15 C12         1.4470    0.1160    7.2260 c         1 CZ0      0.720800
     16 C13        -0.0090    0.0990    7.2510 cc        1 CZ0     -0.247200
     17 C14        -0.7340    0.0540    6.1120 cd        1 CZ0      0.036600
     18 O15         2.1380   -0.1200   -1.2120 oh        1 CZ0     -0.462100
     19 O16         2.2370    0.1530    8.1660 o         1 CZ0     -0.549500
     20 C17        -2.2150    0.0350    6.1290 c3        1 CZ0     -0.074900
     21 H1         -0.5170   -0.1620   -0.9910 ha        1 CZ0      0.150000
     22 H4         -1.7620   -0.1110    1.1730 ha        1 CZ0      0.146000
     23 H7          3.2260    0.0610    3.7320 ha        1 CZ0      0.191000
     24 H8         -1.7880   -0.0370    3.5720 ha        1 CZ0      0.143000
     25 H13        -0.4650    0.1240    8.2520 ha        1 CZ0      0.172000
     26 HO15        1.5050   -0.1950   -1.9440 ho        1 CZ0      0.437000
     27 H17        -2.5940   -0.8940    5.6330 hc        1 CZ0      0.059367
     28 H17A       -2.6180    0.9220    5.5780 hc        1 CZ0      0.059367
     29 H17B       -2.6070    0.0610    7.1760 hc        1 CZ0      0.059367
@<TRIPOS>BOND
     1    1    3 ar  
     2    1    7 ar  
     3    1   21 1   
     4    2    4 1   
     5    2    5 1   
     6    2    6 1   
     7    3    5 ar  
     8    3   18 1   
     9    5    9 ar  
    10    7    8 ar  
    11    7   22 1   
    12    8    9 ar  
    13    8   11 ar  
    14    9   10 ar  
    15   10   13 ar  
    16   10   23 1   
    17   11   12 ar  
    18   11   24 1   
    19   12   13 ar  
    20   12   17 1   
    21   13   14 1   
    22   14   15 1   
    23   15   16 1   
    24   15   19 2   
    25   16   17 2   
    26   16   25 1   
    27   17   20 1   
    28   18   26 1   
    29   20   27 1   
    30   20   28 1   
    31   20   29 1   
@<TRIPOS>SUBSTRUCTURE
     1 CZ0         1 TEMP              0 ****  ****    0 ROOT
