@<TRIPOS>MOLECULE
CZ0
   29    26     1     0     0
SMALL
bcc


@<TRIPOS>ATOM
      1 C1         -0.5510    0.0240   -3.4410 c1        1 CZ0     -0.125000
      2 N1          2.9220   -0.1590   -2.5150 n2        1 CZ0      0.583000
      3 C2          0.8470    0.0240   -3.4410 c1        1 CZ0      0.166000
      4 O2          3.7520    0.9220   -2.5930 os        1 CZ0     -0.334000
      5 C3          1.5430    0.0240   -2.2360 c2        1 CZ0     -0.172000
      6 O3          3.3650   -1.2840   -2.6970 o         1 CZ0     -0.357000
      7 C4         -1.2480    0.0240   -2.2360 c1        1 CZ0     -0.125000
      8 C5         -0.5460    0.0240   -1.0190 c1        1 CZ0     -0.105000
      9 C6          0.8420    0.0240   -1.0190 c2        1 CZ0      0.074000
     10 C7          1.5510    0.0240    0.2070 c1        1 CZ0     -0.156000
     11 C8         -1.2550    0.0240    0.2080 c1        1 CZ0     -0.045000
     12 C9         -0.5560    0.0240    1.4210 c1        1 CZ0     -0.125000
     13 C10         0.8520    0.0240    1.4210 c1        1 CZ0      0.122000
     14 O11         1.6020    0.0240    2.7110 os        1 CZ0     -0.186000
     15 C12         0.8900    0.0240    3.9570 c2        1 CZ0      0.336000
     16 C13        -0.5870    0.0240    3.9610 c2        1 CZ0     -0.228000
     17 C14        -1.3070    0.0240    2.7060 c2        1 CZ0      0.029000
     18 O15         1.3620   -0.0710   -4.7470 oh        1 CZ0     -0.216000
     19 O16         1.4870   -0.1640    4.9980 o         1 CZ0     -0.274000
     20 C17        -2.8160   -0.0910    2.7010 c3        1 CZ0     -0.197000
     21 H1         -1.0390    0.0240   -4.2870 ha        1 CZ0      0.148000
     22 H4         -2.2240    0.0240   -2.2370 ha        1 CZ0      0.148000
     23 H7          2.5270    0.0330    0.2070 ha        1 CZ0      0.191000
     24 H8         -2.2310    0.0380    0.2080 ha        1 CZ0      0.143000
     25 H13        -1.0740    0.0240    4.8070 ha        1 CZ0      0.172000
     26 HO15        1.3110    0.7210   -5.1440 ho        1 CZ0      0.236000
     27 H17        -3.0780   -0.9050    2.2300 hc        1 CZ0      0.098667
     28 H17A       -3.1430   -0.1280    3.6200 hc        1 CZ0      0.098667
     29 H17B       -3.2000    0.6840    2.2500 hc        1 CZ0      0.098667
@<TRIPOS>BOND
     1    1    7 1   
     2    1   21 1   
     3    2    5 1   
     4    2    6 1   
     5    3    5 1   
     6    3   18 1   
     7    5    9 1   
     8    7   22 1   
     9    8    9 1   
    10    8   11 1   
    11    9   10 1   
    12   10   23 1   
    13   11   24 1   
    14   12   13 1   
    15   12   17 1   
    16   13   14 1   
    17   14   15 1   
    18   15   16 1   
    19   15   19 1   
    20   16   17 1   
    21   16   25 1   
    22   17   20 1   
    23   18   26 1   
    24   20   27 1   
    25   20   28 1   
    26   20   29 1   
@<TRIPOS>SUBSTRUCTURE
     1 CZ0         1 TEMP              0 ****  ****    0 ROOT
