@<TRIPOS>MOLECULE
CZA
   45    49     1     0     0
SMALL
bcc


@<TRIPOS>ATOM
      1 O2         -0.0340    0.2120    0.0590 o         1 CZA     -0.543100
      2 C6          1.1940    0.1710    0.0880 c         1 CZA      0.605300
      3 C3          2.1020    0.1140    1.2360 ce        1 CZA     -0.505400
      4 C2          1.7410    0.1500    2.6330 c         1 CZA      0.628300
      5 O1          2.6160    0.1070    3.5230 o         1 CZA     -0.621100
      6 C1          0.2880    0.2380    2.9600 c3        1 CZA     -0.183100
      7 C5          2.1060    0.2160   -1.1570 c3        1 CZA      0.059500
      8 C7          1.9300   -0.9280   -2.1680 c3        1 CZA      0.030500
      9 C15         0.9640   -0.6540   -3.2330 cc        1 CZA     -0.158400
     10 C16        -0.4280   -0.6430   -3.3130 cd        1 CZA     -0.063100
     11 N2         -0.8230   -0.4240   -4.6410 na        1 CZA     -0.192400
     12 C17         0.3200   -0.2790   -5.4360 ca        1 CZA     -0.039200
     13 C14         1.4480   -0.4120   -4.5670 ca        1 CZA     -0.103800
     14 C18         0.5490   -0.0570   -6.8050 ca        1 CZA     -0.138000
     15 C19         1.8700    0.0240   -7.2290 ca        1 CZA     -0.113000
     16 C20         2.9720   -0.0910   -6.3550 ca        1 CZA     -0.147000
     17 C13         2.7680   -0.3040   -4.9980 ca        1 CZA     -0.038300
     18 C12         3.7970   -0.3460   -3.9260 c3        1 CZA     -0.023100
     19 C8          3.3760   -1.1610   -2.7030 c3        1 CZA     -0.058700
     20 C9          4.2800   -0.8470   -1.4570 c3        1 CZA      0.207200
     21 C10         4.5300   -2.1740   -0.7220 c3        1 CZA     -0.105100
     22 C11         5.6500   -0.2750   -1.8290 c3        1 CZA     -0.105100
     23 N1          3.5100    0.1360   -0.6520 nh        1 CZA     -0.595400
     24 C4          3.4160    0.0170    0.7500 c2        1 CZA      0.420100
     25 O3          4.5520   -0.1160    1.4680 oh        1 CZA     -0.471100
     26 HO3         4.3220   -0.0250    2.4200 ho        1 CZA      0.491000
     27 H11         0.1330    0.2650    4.0650 hc        1 CZA      0.069700
     28 H12        -0.1440    1.1590    2.4970 hc        1 CZA      0.069700
     29 H13        -0.2460   -0.6430    2.5260 hc        1 CZA      0.069700
     30 H5          1.9800    1.2140   -1.6620 h1        1 CZA      0.116700
     31 H7          1.6130   -1.8560   -1.6110 hc        1 CZA      0.064700
     32 H161       -1.1710   -0.7640   -2.5200 h4        1 CZA      0.182000
     33 HN2        -1.7520   -0.3280   -4.9520 hn        1 CZA      0.300700
     34 H18        -0.2820    0.0500   -7.5140 ha        1 CZA      0.133000
     35 H19         2.0720    0.1930   -8.2980 ha        1 CZA      0.129000
     36 H20         3.9900   -0.0030   -6.7600 ha        1 CZA      0.131000
     37 H121        4.7580   -0.7670   -4.3250 hc        1 CZA      0.058700
     38 H122        3.9930    0.7180   -3.6160 hc        1 CZA      0.058700
     39 H8          3.4790   -2.2470   -2.9660 hc        1 CZA      0.070700
     40 H101        5.1190   -2.8520   -1.3850 hc        1 CZA      0.051200
     41 H102        5.1120   -2.0020    0.2160 hc        1 CZA      0.051200
     42 H103        3.5660   -2.6740   -0.4650 hc        1 CZA      0.051200
     43 H111        5.5730    0.7430   -2.2790 hc        1 CZA      0.051200
     44 H112        6.1410   -0.9610   -2.5600 hc        1 CZA      0.051200
     45 H113        6.2880   -0.2030   -0.9140 hc        1 CZA      0.051200
@<TRIPOS>BOND
     1    1    2 2   
     2    2    3 1   
     3    2    7 1   
     4    3    4 1   
     5    3   24 2   
     6    4    5 2   
     7    4    6 1   
     8    6   27 1   
     9    6   28 1   
    10    6   29 1   
    11    7    8 1   
    12    7   23 1   
    13    7   30 1   
    14    8    9 1   
    15    8   19 1   
    16    8   31 1   
    17    9   10 2   
    18    9   13 1   
    19   10   11 1   
    20   10   32 1   
    21   11   12 1   
    22   11   33 1   
    23   12   13 ar  
    24   12   14 ar  
    25   13   17 ar  
    26   14   15 ar  
    27   14   34 1   
    28   15   16 ar  
    29   15   35 1   
    30   16   17 ar  
    31   16   36 1   
    32   17   18 1   
    33   18   19 1   
    34   18   37 1   
    35   18   38 1   
    36   19   20 1   
    37   19   39 1   
    38   20   21 1   
    39   20   22 1   
    40   20   23 1   
    41   21   40 1   
    42   21   41 1   
    43   21   42 1   
    44   22   43 1   
    45   22   44 1   
    46   22   45 1   
    47   23   24 1   
    48   24   25 1   
    49   25   26 1   
@<TRIPOS>SUBSTRUCTURE
     1 CZA         1 TEMP              0 ****  ****    0 ROOT
