@<TRIPOS>MOLECULE
CZA
   45    49     1     0     0
SMALL
bcc


@<TRIPOS>ATOM
      1 O2         -0.0310    0.2390    0.0550 o         1 CZA     -0.543100
      2 C6          1.1970    0.1870    0.0850 c         1 CZA      0.605300
      3 C3          2.1030    0.1250    1.2340 ce        1 CZA     -0.505400
      4 C2          1.7410    0.1670    2.6310 c         1 CZA      0.628300
      5 O1          2.6150    0.1180    3.5220 o         1 CZA     -0.621100
      6 C1          0.2890    0.2680    2.9560 c3        1 CZA     -0.183100
      7 C5          2.1100    0.2210   -1.1590 c3        1 CZA      0.059500
      8 C7          1.9260   -0.9240   -2.1680 c3        1 CZA      0.030500
      9 C15         0.9630   -0.6440   -3.2340 cc        1 CZA     -0.158400
     10 C16        -0.4280   -0.6210   -3.3160 cd        1 CZA     -0.063100
     11 N2         -0.8200   -0.4020   -4.6450 na        1 CZA     -0.192400
     12 C17         0.3250   -0.2680   -5.4390 ca        1 CZA     -0.039200
     13 C14         1.4510   -0.4100   -4.5680 ca        1 CZA     -0.103800
     14 C18         0.5570   -0.0520   -6.8080 ca        1 CZA     -0.138000
     15 C19         1.8800    0.0160   -7.2300 ca        1 CZA     -0.113000
     16 C20         2.9800   -0.1060   -6.3550 ca        1 CZA     -0.147000
     17 C13         2.7720   -0.3150   -4.9980 ca        1 CZA     -0.038300
     18 C12         3.8000   -0.3630   -3.9250 c3        1 CZA     -0.023100
     19 C8          3.3700   -1.1710   -2.7000 c3        1 CZA     -0.058700
     20 C9          4.2760   -0.8620   -1.4540 c3        1 CZA      0.207200
     21 C10         4.5120   -2.1890   -0.7160 c3        1 CZA     -0.105100
     22 C11         5.6510   -0.3030   -1.8260 c3        1 CZA     -0.105100
     23 N1          3.5130    0.1300   -0.6520 nh        1 CZA     -0.595400
     24 C4          3.4170    0.0150    0.7500 c2        1 CZA      0.420100
     25 O3          4.5500   -0.1270    1.4700 oh        1 CZA     -0.471100
     26 HO3         4.3210   -0.0320    2.4210 ho        1 CZA      0.491000
     27 H11         0.1320    0.2990    4.0610 hc        1 CZA      0.069700
     28 H12        -0.2540   -0.6090    2.5230 hc        1 CZA      0.069700
     29 H13        -0.1360    1.1920    2.4900 hc        1 CZA      0.069700
     30 H5          1.9940    1.2190   -1.6670 h1        1 CZA      0.116700
     31 H7          1.6000   -1.8480   -1.6090 hc        1 CZA      0.064700
     32 H161       -1.1730   -0.7330   -2.5230 h4        1 CZA      0.182000
     33 HN2        -1.7480   -0.2980   -4.9570 hn        1 CZA      0.300700
     34 H18        -0.2710    0.0600   -7.5180 ha        1 CZA      0.133000
     35 H19         2.0840    0.1800   -8.3000 ha        1 CZA      0.129000
     36 H20         3.9990   -0.0290   -6.7590 ha        1 CZA      0.131000
     37 H121        4.7570   -0.7940   -4.3220 hc        1 CZA      0.058700
     38 H122        4.0040    0.7010   -3.6170 hc        1 CZA      0.058700
     39 H8          3.4630   -2.2590   -2.9600 hc        1 CZA      0.070700
     40 H101        3.5440   -2.6800   -0.4580 hc        1 CZA      0.051200
     41 H102        5.0950   -2.0210    0.2230 hc        1 CZA      0.051200
     42 H103        5.0960   -2.8740   -1.3760 hc        1 CZA      0.051200
     43 H111        6.2890   -0.2350   -0.9110 hc        1 CZA      0.051200
     44 H112        5.5830    0.7140   -2.2790 hc        1 CZA      0.051200
     45 H113        6.1370   -0.9950   -2.5550 hc        1 CZA      0.051200
@<TRIPOS>BOND
     1    1    2 2   
     2    2    3 1   
     3    2    7 1   
     4    3    4 1   
     5    3   24 2   
     6    4    5 2   
     7    4    6 1   
     8    6   27 1   
     9    6   28 1   
    10    6   29 1   
    11    7    8 1   
    12    7   23 1   
    13    7   30 1   
    14    8    9 1   
    15    8   19 1   
    16    8   31 1   
    17    9   10 2   
    18    9   13 1   
    19   10   11 1   
    20   10   32 1   
    21   11   12 1   
    22   11   33 1   
    23   12   13 ar  
    24   12   14 ar  
    25   13   17 ar  
    26   14   15 ar  
    27   14   34 1   
    28   15   16 ar  
    29   15   35 1   
    30   16   17 ar  
    31   16   36 1   
    32   17   18 1   
    33   18   19 1   
    34   18   37 1   
    35   18   38 1   
    36   19   20 1   
    37   19   39 1   
    38   20   21 1   
    39   20   22 1   
    40   20   23 1   
    41   21   40 1   
    42   21   41 1   
    43   21   42 1   
    44   22   43 1   
    45   22   44 1   
    46   22   45 1   
    47   23   24 1   
    48   24   25 1   
    49   25   26 1   
@<TRIPOS>SUBSTRUCTURE
     1 CZA         1 TEMP              0 ****  ****    0 ROOT
