@<TRIPOS>MOLECULE
CZA
   45    43     1     0     0
SMALL
bcc


@<TRIPOS>ATOM
      1 O2         -2.9910    0.7350    0.6530 o         1 CZA     -0.253000
      2 C6         -1.7820    0.7350    0.6530 c1        1 CZA      0.296000
      3 C3         -1.0780    0.7350    1.6200 c1        1 CZA     -0.352000
      4 C2         -1.6890    0.9370    3.0130 c2        1 CZA      0.299000
      5 O1         -2.8830    1.1250    3.1320 o         1 CZA     -0.289000
      6 C1         -0.7930    0.9360    4.2440 c3        1 CZA     -0.260000
      7 C5         -0.7630    1.4140   -0.5730 c3        1 CZA     -0.094000
      8 C7         -0.6210    0.6010   -1.5790 c3        1 CZA     -0.008000
      9 C15        -1.4380   -0.6560   -1.2990 c2        1 CZA     -0.168000
     10 C16        -2.6230   -0.7900   -0.4780 c1        1 CZA     -0.026000
     11 N2         -2.6120   -1.9870    0.0440 n2        1 CZA     -0.208000
     12 C17        -1.5030   -2.6110   -0.3930 c1        1 CZA      0.006000
     13 C14        -0.8740   -1.7630   -1.3410 c1        1 CZA     -0.083000
     14 C18        -0.7750   -3.6520    0.2010 c1        1 CZA     -0.133000
     15 C19         0.5850   -3.7800   -0.0600 c1        1 CZA     -0.130000
     16 C20         1.2210   -2.8670   -0.9150 c1        1 CZA     -0.130000
     17 C13         0.4740   -1.8170   -1.5110 c1        1 CZA     -0.034000
     18 C12         1.3930   -0.3590   -1.5530 c3        1 CZA     -0.108000
     19 C8          0.9540    0.4650   -1.7560 c3        1 CZA     -0.110000
     20 C9          1.3180    1.1300   -1.2630 c3        1 CZA      0.028000
     21 C10         2.6650    0.6650   -0.6740 c3        1 CZA     -0.217500
     22 C11         1.5330    2.3700   -2.1400 c3        1 CZA     -0.217500
     23 N1          0.3010    1.4670   -0.0900 n3        1 CZA     -0.223000
     24 C4          0.0620    1.1390    1.3820 c2        1 CZA      0.222000
     25 O3          0.7900    1.8120    2.3780 oh        1 CZA     -0.225000
     26 HO3         0.9400    2.6490    2.1220 ho        1 CZA      0.242000
     27 H11        -0.4500    1.8370    4.3980 hc        1 CZA      0.100667
     28 H12        -1.3090    0.6470    5.0220 hc        1 CZA      0.100667
     29 H13        -0.0470    0.3240    4.1030 hc        1 CZA      0.100667
     30 H5         -1.0730    2.2940   -0.8570 h1        1 CZA      0.139000
     31 H7         -0.9840    1.0310   -2.3770 hc        1 CZA      0.099000
     32 H161       -3.3560   -0.1470   -0.4210 DU        1 CZA      0.211500
     33 HN2        -3.2830   -2.3650    0.5310 DU        1 CZA      0.211500
     34 H18        -1.2210   -4.2850    0.7950 ha        1 CZA      0.134000
     35 H19         1.0810   -4.5400    0.2990 ha        1 CZA      0.129000
     36 H20         2.1750   -2.9540   -1.1000 ha        1 CZA      0.129000
     37 H121        2.1030   -0.4810   -2.2110 hc        1 CZA      0.092000
     38 H122        1.8150   -0.2550   -0.6780 hc        1 CZA      0.092000
     39 H8          1.1490    0.6620   -2.6920 hc        1 CZA      0.109000
     40 H101        2.5110    0.2310    0.1870 hc        1 CZA      0.088000
     41 H102        3.2490    1.4370   -0.5500 hc        1 CZA      0.088000
     42 H103        3.0880    0.0330   -1.2860 hc        1 CZA      0.088000
     43 H111        0.7240    2.5480   -2.6550 hc        1 CZA      0.088000
     44 H112        2.2790    2.2120   -2.7490 hc        1 CZA      0.088000
     45 H113        1.7340    3.1380   -1.5720 hc        1 CZA      0.088000
@<TRIPOS>BOND
     1    1    2 1   
     2    2    7 1   
     3    3    4 1   
     4    3   24 1   
     5    4    5 1   
     6    4    6 1   
     7    6   27 1   
     8    6   28 1   
     9    6   29 1   
    10    7    8 1   
    11    7   23 1   
    12    7   30 1   
    13    8    9 1   
    14    8   19 1   
    15    8   31 1   
    16    9   10 1   
    17    9   13 1   
    18   10   11 1   
    19   11   12 1   
    20   12   14 1   
    21   13   17 1   
    22   14   34 1   
    23   15   16 1   
    24   15   35 1   
    25   16   36 1   
    26   17   18 1   
    27   18   19 1   
    28   18   37 1   
    29   18   38 1   
    30   19   20 1   
    31   19   39 1   
    32   20   21 1   
    33   20   22 1   
    34   20   23 1   
    35   21   40 1   
    36   21   41 1   
    37   21   42 1   
    38   22   43 1   
    39   22   44 1   
    40   22   45 1   
    41   23   24 1   
    42   24   25 1   
    43   25   26 1   
@<TRIPOS>SUBSTRUCTURE
     1 CZA         1 TEMP              0 ****  ****    0 ROOT
