@<TRIPOS>MOLECULE
CZA
   45    49     1     0     0
SMALL
bcc


@<TRIPOS>ATOM
      1 O2         -1.8550   -7.1960    2.2770 o         1 CZA     -0.536100
      2 C6         -0.9030   -7.0310    1.5160 c         1 CZA      0.594300
      3 C3          0.0310   -8.0180    0.9540 ce        1 CZA     -0.420400
      4 C2          0.0390   -9.4420    1.2450 c         1 CZA      0.611300
      5 O1          0.8670  -10.2190    0.7480 o         1 CZA     -0.552100
      6 C1         -1.0200   -9.9250    2.1850 c3        1 CZA     -0.189100
      7 C5         -0.4320   -5.6570    0.9960 c3        1 CZA      0.057500
      8 C7         -1.4750   -4.8720    0.1820 c3        1 CZA      0.030500
      9 C15        -2.2610   -3.9190    0.9670 cc        1 CZA     -0.158400
     10 C16        -3.3320   -4.0280    1.8530 cd        1 CZA     -0.062100
     11 N2         -3.7680   -2.7470    2.2260 na        1 CZA     -0.192400
     12 C17        -2.9700   -1.7920    1.5870 ca        1 CZA     -0.039200
     13 C14        -2.0140   -2.5110    0.7990 ca        1 CZA     -0.102800
     14 C18        -2.9370   -0.3870    1.5650 ca        1 CZA     -0.137000
     15 C19        -1.9680    0.2190    0.7750 ca        1 CZA     -0.113000
     16 C20        -1.0220   -0.5040    0.0180 ca        1 CZA     -0.147000
     17 C13        -1.0320   -1.8930    0.0300 ca        1 CZA     -0.039300
     18 C12        -0.0580   -2.8070   -0.6210 c3        1 CZA     -0.023100
     19 C8         -0.6290   -4.1900   -0.9340 c3        1 CZA     -0.051700
     20 C9          0.5090   -5.2390   -1.2060 c3        1 CZA      0.184200
     21 C10         0.0120   -6.1720   -2.3220 c3        1 CZA     -0.107100
     22 C11         1.8050   -4.5930   -1.7010 c3        1 CZA     -0.107100
     23 N1          0.7290   -5.9260    0.0960 nh        1 CZA     -0.628400
     24 C4          0.9090   -7.3410    0.1090 c2        1 CZA      0.378100
     25 O3          1.9070   -7.9610   -0.5650 oh        1 CZA     -0.425100
     26 HO3         2.4260   -7.3060   -1.0660 ho        1 CZA      0.438000
     27 H11        -2.0300   -9.6900    1.7680 hc        1 CZA      0.065700
     28 H12        -0.9240   -9.3960    3.1660 hc        1 CZA      0.065700
     29 H13        -0.9300  -11.0250    2.3450 hc        1 CZA      0.065700
     30 H5         -0.0590   -5.0450    1.8630 h1        1 CZA      0.116700
     31 H7         -2.1730   -5.6070   -0.3120 hc        1 CZA      0.065700
     32 H161       -3.8130   -4.9230    2.2550 h4        1 CZA      0.183000
     33 HN2        -4.4840   -2.5540    2.8730 hn        1 CZA      0.300700
     34 H18        -3.6480    0.2110    2.1480 ha        1 CZA      0.134000
     35 H19        -1.9280    1.3190    0.7400 ha        1 CZA      0.129000
     36 H20        -0.2760    0.0440   -0.5750 ha        1 CZA      0.131000
     37 H121        0.3240   -2.3520   -1.5730 hc        1 CZA      0.057700
     38 H122        0.8150   -2.9150    0.0820 hc        1 CZA      0.057700
     39 H8         -1.2690   -4.0960   -1.8510 hc        1 CZA      0.069700
     40 H101       -0.9690   -6.6310   -2.0500 hc        1 CZA      0.049200
     41 H102       -0.1180   -5.5820   -3.2610 hc        1 CZA      0.049200
     42 H103        0.7450   -6.9910   -2.5210 hc        1 CZA      0.049200
     43 H111        1.5680   -3.9190   -2.5580 hc        1 CZA      0.049200
     44 H112        2.3110   -4.0000   -0.9020 hc        1 CZA      0.049200
     45 H113        2.5160   -5.3790   -2.0550 hc        1 CZA      0.049200
@<TRIPOS>BOND
     1    1    2 2   
     2    2    3 1   
     3    2    7 1   
     4    3    4 1   
     5    3   24 2   
     6    4    5 2   
     7    4    6 1   
     8    6   27 1   
     9    6   28 1   
    10    6   29 1   
    11    7    8 1   
    12    7   23 1   
    13    7   30 1   
    14    8    9 1   
    15    8   19 1   
    16    8   31 1   
    17    9   10 2   
    18    9   13 1   
    19   10   11 1   
    20   10   32 1   
    21   11   12 1   
    22   11   33 1   
    23   12   13 ar  
    24   12   14 ar  
    25   13   17 ar  
    26   14   15 ar  
    27   14   34 1   
    28   15   16 ar  
    29   15   35 1   
    30   16   17 ar  
    31   16   36 1   
    32   17   18 1   
    33   18   19 1   
    34   18   37 1   
    35   18   38 1   
    36   19   20 1   
    37   19   39 1   
    38   20   21 1   
    39   20   22 1   
    40   20   23 1   
    41   21   40 1   
    42   21   41 1   
    43   21   42 1   
    44   22   43 1   
    45   22   44 1   
    46   22   45 1   
    47   23   24 1   
    48   24   25 1   
    49   25   26 1   
@<TRIPOS>SUBSTRUCTURE
     1 CZA         1 TEMP              0 ****  ****    0 ROOT
