@<TRIPOS>MOLECULE
CZB
   56    60     1     0     0
SMALL
bcc


@<TRIPOS>ATOM
      1 O18        -0.2810   -0.0070    0.1250 o         1 CZB     -0.557500
      2 C3          0.9410   -0.1290    0.0630 c         1 CZB      0.646500
      3 N4          1.8310   -0.2860    1.1460 n         1 CZB     -0.343500
      4 C5          1.6410   -0.0150    2.4990 c2        1 CZB     -0.080400
      5 C9          3.1630   -0.3930    0.6140 c2        1 CZB      0.427900
      6 C8          4.3010   -0.5950    1.6120 c3        1 CZB      0.177200
      7 C26         4.5360   -2.1210    1.7370 c3        1 CZB     -0.030100
      8 C27         5.3840   -2.6310    0.6260 ca        1 CZB     -0.097300
      9 C28         6.7800   -2.5650    0.7280 ca        1 CZB     -0.114000
     10 C29         7.5840   -3.0670   -0.2930 ca        1 CZB     -0.129500
     11 C30         7.0020   -3.6400   -1.4240 ca        1 CZB     -0.125000
     12 C31         5.6130   -3.7070   -1.5310 ca        1 CZB     -0.129500
     13 C32         4.8050   -3.2050   -0.5110 ca        1 CZB     -0.114000
     14 N7          4.0560    0.0150    2.9120 nh        1 CZB     -0.718000
     15 C6          2.7110    0.1620    3.3360 ce        1 CZB      0.081800
     16 C19         2.4820    0.4940    4.7490 ca        1 CZB     -0.089800
     17 C20         1.4650    1.3980    5.0940 ca        1 CZB     -0.073000
     18 C21         1.2190    1.7170    6.4230 ca        1 CZB     -0.189000
     19 C24         3.2600   -0.0880    5.7580 ca        1 CZB     -0.073000
     20 C23         3.0270    0.2210    7.0950 ca        1 CZB     -0.189000
     21 C22         2.0060    1.1230    7.4250 ca        1 CZB      0.134100
     22 O25         1.7170    1.4780    8.7210 oh        1 CZB     -0.494100
     23 N1          3.2450   -0.3510   -0.6970 n2        1 CZB     -0.574900
     24 C2          1.8610   -0.2010   -1.2260 c3        1 CZB      0.217000
     25 O33         1.4300   -1.3300   -2.0380 os        1 CZB     -0.173800
     26 O34         1.4280   -2.4520   -1.4100 oh        1 CZB     -0.388000
     27 C10         1.6290    1.0340   -2.1050 c3        1 CZB     -0.009100
     28 C11         2.7440    1.3510   -3.0350 ca        1 CZB     -0.065300
     29 C12         3.3720    0.3470   -3.7810 ca        1 CZB     -0.113500
     30 C13         4.3890    0.6660   -4.6770 ca        1 CZB     -0.104500
     31 C14         4.7870    1.9970   -4.8400 ca        1 CZB     -0.023900
     32 BR17        6.1520    2.4300   -6.0470 br        1 CZB     -0.093100
     33 C15         4.1640    3.0040   -4.0970 ca        1 CZB     -0.104500
     34 C16         3.1490    2.6800   -3.1990 ca        1 CZB     -0.113500
     35 H5          0.5910    0.0120    2.8360 h4        1 CZB      0.181000
     36 H8          5.2390   -0.1320    1.1760 h1        1 CZB      0.096700
     37 H261        3.5500   -2.6530    1.7540 hc        1 CZB      0.066700
     38 H262        5.0460   -2.3330    2.7160 hc        1 CZB      0.066700
     39 H28         7.2410   -2.1180    1.6210 ha        1 CZB      0.136000
     40 H29         8.6790   -3.0120   -0.2060 ha        1 CZB      0.132000
     41 H30         7.6370   -4.0360   -2.2290 ha        1 CZB      0.131000
     42 H31         5.1500   -4.1520   -2.4240 ha        1 CZB      0.132000
     43 H32         3.7080   -3.2460   -0.6120 ha        1 CZB      0.136000
     44 HN7         4.5720    0.8630    3.0400 hn        1 CZB      0.400800
     45 H20         0.8560    1.8640    4.3030 ha        1 CZB      0.144500
     46 H21         0.4240    2.4220    6.7040 ha        1 CZB      0.146000
     47 H24         4.0580   -0.8020    5.4970 ha        1 CZB      0.144500
     48 H23         3.6370   -0.2400    7.8850 ha        1 CZB      0.146000
     49 H25         2.3240    0.9990    9.3050 ho        1 CZB      0.422000
     50 H34         0.5130   -2.6020   -1.0680 ho        1 CZB      0.408000
     51 H101        0.6930    0.8470   -2.7040 hc        1 CZB      0.077200
     52 H102        1.4300    1.9050   -1.4250 hc        1 CZB      0.077200
     53 H12         3.0670   -0.7040   -3.6440 ha        1 CZB      0.146000
     54 H13         4.8770   -0.1370   -5.2520 ha        1 CZB      0.146500
     55 H15         4.4690    4.0550   -4.2150 ha        1 CZB      0.146500
     56 H16         2.6670    3.4800   -2.6180 ha        1 CZB      0.146000
@<TRIPOS>BOND
     1    1    2 2   
     2    2    3 1   
     3    2   24 1   
     4    3    4 1   
     5    3    5 1   
     6    4   15 2   
     7    4   35 1   
     8    5    6 1   
     9    5   23 2   
    10    6    7 1   
    11    6   14 1   
    12    6   36 1   
    13    7    8 1   
    14    7   37 1   
    15    7   38 1   
    16    8    9 ar  
    17    8   13 ar  
    18    9   10 ar  
    19    9   39 1   
    20   10   11 ar  
    21   10   40 1   
    22   11   12 ar  
    23   11   41 1   
    24   12   13 ar  
    25   12   42 1   
    26   13   43 1   
    27   14   15 1   
    28   14   44 1   
    29   15   16 1   
    30   16   17 ar  
    31   16   19 ar  
    32   17   18 ar  
    33   17   45 1   
    34   18   21 ar  
    35   18   46 1   
    36   19   20 ar  
    37   19   47 1   
    38   20   21 ar  
    39   20   48 1   
    40   21   22 1   
    41   22   49 1   
    42   23   24 1   
    43   24   25 1   
    44   24   27 1   
    45   25   26 1   
    46   26   50 1   
    47   27   28 1   
    48   27   51 1   
    49   27   52 1   
    50   28   29 ar  
    51   28   34 ar  
    52   29   30 ar  
    53   29   53 1   
    54   30   31 ar  
    55   30   54 1   
    56   31   32 1   
    57   31   33 ar  
    58   33   34 ar  
    59   33   55 1   
    60   34   56 1   
@<TRIPOS>SUBSTRUCTURE
     1 CZB         1 TEMP              0 ****  ****    0 ROOT
