@<TRIPOS>MOLECULE
CZB
   56    52     1     0     0
SMALL
bcc


@<TRIPOS>ATOM
      1 O18        -3.5190    0.5820   -0.6740 o         1 CZB     -0.275000
      2 C3         -2.3050    0.5570   -0.6780 c1        1 CZB      0.282000
      3 N4         -1.4100    0.5430    0.5450 n2        1 CZB     -0.269000
      4 C5         -1.4480   -0.7940    1.2720 c2        1 CZB     -0.087000
      5 C9         -0.2110    0.9640    0.0880 c2        1 CZB      0.106000
      6 C8          1.0290    0.4440    0.7960 c3        1 CZB      0.061000
      7 C26         2.3570    1.0260    0.0990 c3        1 CZB     -0.119000
      8 C27         3.1830    1.7680    1.1270 c2        1 CZB     -0.092000
      9 C28         2.8820    3.0860    1.4340 c2        1 CZB     -0.126000
     10 C29         3.7190    3.8130    2.2640 c1        1 CZB     -0.129000
     11 C30         4.8580    3.2230    2.7890 c1        1 CZB     -0.128000
     12 C31         5.1600    1.9060    2.4830 c1        1 CZB     -0.128000
     13 C32         4.3230    1.1780    1.6530 c1        1 CZB     -0.126000
     14 N7          1.0530   -0.9250    0.8690 n3        1 CZB     -0.280000
     15 C6         -0.0680   -1.5590    1.4170 c2        1 CZB     -0.006000
     16 C19         0.1060   -2.6050    2.4960 c2        1 CZB     -0.076000
     17 C20         0.3630   -3.9220    2.1470 c2        1 CZB     -0.070000
     18 C21         0.4100   -4.9030    3.1260 c1        1 CZB     -0.212000
     19 C24        -0.1040   -2.2700    3.8250 c1        1 CZB     -0.088000
     20 C23        -0.0580   -3.2510    4.8030 c1        1 CZB     -0.155000
     21 C22         0.1990   -4.5670    4.4540 c1        1 CZB      0.088000
     22 O25         0.2480   -5.5620    5.4480 oh        1 CZB     -0.248000
     23 N1         -0.1700    1.2390   -1.2050 n1        1 CZB     -0.231000
     24 C2         -1.3540    1.0580   -1.8730 c2        1 CZB      0.077000
     25 O33        -1.8200    2.1970   -2.5470 os        1 CZB     -0.087000
     26 O34        -1.6110    3.3470   -1.6580 oh        1 CZB     -0.187000
     27 C10        -1.2460    0.0720   -2.9660 c3        1 CZB     -0.094000
     28 C11        -2.3220    0.3390   -3.9920 c2        1 CZB     -0.064000
     29 C12        -2.1020    1.2630   -5.0020 c2        1 CZB     -0.115000
     30 C13        -3.0640    1.4630   -5.9790 c1        1 CZB     -0.109000
     31 C14        -4.2460    0.7410   -5.9470 c1        1 CZB     -0.161000
     32 BR17       -5.5790    1.0290   -7.2850 br        1 CZB      0.047000
     33 C15        -4.4660   -0.1820   -4.9370 c1        1 CZB     -0.103000
     34 C16        -3.5040   -0.3830   -3.9600 c1        1 CZB     -0.110000
     35 H5         -2.2900   -1.2850    1.3480 h4        1 CZB      0.182000
     36 H8          1.1050    0.8290    1.6910 h1        1 CZB      0.094000
     37 H261        2.1050    1.6390   -0.6210 hc        1 CZB      0.115500
     38 H262        2.8820    0.2880   -0.2700 hc        1 CZB      0.115500
     39 H28         2.0790    3.5010    1.0650 ha        1 CZB      0.133000
     40 H29         3.5070    4.7410    2.4800 ha        1 CZB      0.134000
     41 H30         5.4480    3.7360    3.3740 ha        1 CZB      0.134500
     42 H31         5.9630    1.4910    2.8530 ha        1 CZB      0.134500
     43 H32         4.5360    0.2500    1.4380 ha        1 CZB      0.143000
     44 HN7         1.8480   -1.3720    0.8110 hn        1 CZB      0.212000
     45 H20         0.5120   -4.1590    1.2110 ha        1 CZB      0.144000
     46 H21         0.5900   -5.8290    2.8800 ha        1 CZB      0.139000
     47 H24        -0.2850   -1.3440    4.0710 ha        1 CZB      0.134000
     48 H23        -0.2070   -3.0140    5.7390 ha        1 CZB      0.154000
     49 H25        -0.5430   -5.9650    5.5030 ho        1 CZB      0.221000
     50 H34        -1.6730    4.0990   -2.1270 ho        1 CZB      0.207000
     51 H101       -1.3570   -0.8300   -2.6050 hc        1 CZB      0.113500
     52 H102       -0.3670    0.1490   -3.3890 hc        1 CZB      0.113500
     53 H12        -1.2700    1.7720   -5.0250 ha        1 CZB      0.137000
     54 H13        -2.9090    2.1140   -6.6910 ha        1 CZB      0.145000
     55 H15        -5.2980   -0.6910   -4.9150 ha        1 CZB      0.148000
     56 H16        -3.6590   -1.0340   -3.2490 ha        1 CZB      0.160000
@<TRIPOS>BOND
     1    1    2 1   
     2    2   24 1   
     3    3    4 1   
     4    3    5 1   
     5    4   15 1   
     6    4   35 1   
     7    5    6 1   
     8    5   23 1   
     9    6    7 1   
    10    6   14 1   
    11    6   36 1   
    12    7    8 1   
    13    7   37 1   
    14    7   38 1   
    15    8    9 1   
    16    8   13 1   
    17    9   10 1   
    18    9   39 1   
    19   10   40 1   
    20   11   12 1   
    21   11   41 1   
    22   12   42 1   
    23   13   43 1   
    24   14   15 1   
    25   14   44 1   
    26   15   16 1   
    27   16   17 1   
    28   16   19 1   
    29   17   18 1   
    30   17   45 1   
    31   18   46 1   
    32   19   47 1   
    33   20   21 1   
    34   20   48 1   
    35   21   22 1   
    36   22   49 1   
    37   24   25 1   
    38   24   27 1   
    39   25   26 1   
    40   26   50 1   
    41   27   28 1   
    42   27   51 1   
    43   27   52 1   
    44   28   29 1   
    45   28   34 1   
    46   29   30 1   
    47   29   53 1   
    48   30   54 1   
    49   31   32 1   
    50   31   33 1   
    51   33   55 1   
    52   34   56 1   
@<TRIPOS>SUBSTRUCTURE
     1 CZB         1 TEMP              0 ****  ****    0 ROOT
