@<TRIPOS>MOLECULE
CZB
   56    60     1     0     0
SMALL
bcc


@<TRIPOS>ATOM
      1 O18        -0.2800   -0.0380    0.1140 o         1 CZB     -0.557500
      2 C3          0.9430   -0.1520    0.0560 c         1 CZB      0.646500
      3 N4          1.8310   -0.2960    1.1430 n         1 CZB     -0.344500
      4 C5          1.6350   -0.0180    2.4940 c2        1 CZB     -0.079400
      5 C9          3.1650   -0.3970    0.6150 c2        1 CZB      0.427900
      6 C8          4.3020   -0.5840    1.6180 c3        1 CZB      0.177200
      7 C26         4.5480   -2.1070    1.7520 c3        1 CZB     -0.030100
      8 C27         5.4040   -2.6180    0.6480 ca        1 CZB     -0.097300
      9 C28         6.7980   -2.5400    0.7530 ca        1 CZB     -0.114000
     10 C29         7.6100   -3.0420   -0.2620 ca        1 CZB     -0.129500
     11 C30         7.0350   -3.6270   -1.3910 ca        1 CZB     -0.125000
     12 C31         5.6480   -3.7060   -1.5020 ca        1 CZB     -0.129500
     13 C32         4.8330   -3.2040   -0.4880 ca        1 CZB     -0.114000
     14 N7          4.0480    0.0310    2.9130 nh        1 CZB     -0.718000
     15 C6          2.7010    0.1720    3.3320 ce        1 CZB      0.081800
     16 C19         2.4660    0.5090    4.7430 ca        1 CZB     -0.089800
     17 C20         1.4420    1.4080    5.0800 ca        1 CZB     -0.073000
     18 C21         1.1890    1.7320    6.4070 ca        1 CZB     -0.189000
     19 C24         3.2450   -0.0620    5.7570 ca        1 CZB     -0.073000
     20 C23         3.0060    0.2540    7.0920 ca        1 CZB     -0.189000
     21 C22         1.9780    1.1500    7.4140 ca        1 CZB      0.134100
     22 O25         1.6830    1.5100    8.7080 oh        1 CZB     -0.494100
     23 N1          3.2500   -0.3630   -0.6960 n2        1 CZB     -0.574900
     24 C2          1.8670   -0.2260   -1.2300 c3        1 CZB      0.217000
     25 O33         1.4470   -1.3640   -2.0360 os        1 CZB     -0.173800
     26 O34         1.4500   -2.4820   -1.4000 oh        1 CZB     -0.388000
     27 C10         1.6290    1.0010   -2.1180 c3        1 CZB     -0.009100
     28 C11         2.7440    1.3190   -3.0470 ca        1 CZB     -0.065300
     29 C12         3.3810    0.3140   -3.7840 ca        1 CZB     -0.113500
     30 C13         4.3980    0.6340   -4.6810 ca        1 CZB     -0.104500
     31 C14         4.7870    1.9660   -4.8510 ca        1 CZB     -0.023900
     32 BR17        6.1520    2.4000   -6.0590 br        1 CZB     -0.093100
     33 C15         4.1550    2.9740   -4.1170 ca        1 CZB     -0.104500
     34 C16         3.1410    2.6500   -3.2190 ca        1 CZB     -0.113500
     35 H5          0.5840    0.0030    2.8270 h4        1 CZB      0.180000
     36 H8          5.2370   -0.1170    1.1820 h1        1 CZB      0.096700
     37 H261        3.5660   -2.6470    1.7690 hc        1 CZB      0.066700
     38 H262        5.0560   -2.3100    2.7350 hc        1 CZB      0.066700
     39 H28         7.2530   -2.0830    1.6440 ha        1 CZB      0.136000
     40 H29         8.7040   -2.9770   -0.1720 ha        1 CZB      0.132000
     41 H30         7.6760   -4.0230   -2.1920 ha        1 CZB      0.131000
     42 H31         5.1910   -4.1610   -2.3930 ha        1 CZB      0.132000
     43 H32         3.7360   -3.2540   -0.5920 ha        1 CZB      0.136000
     44 HN7         4.5580    0.8840    3.0380 hn        1 CZB      0.400800
     45 H20         0.8320    1.8650    4.2850 ha        1 CZB      0.144500
     46 H21         0.3890    2.4340    6.6810 ha        1 CZB      0.146000
     47 H24         4.0480   -0.7710    5.5030 ha        1 CZB      0.144500
     48 H23         3.6170   -0.1990    7.8860 ha        1 CZB      0.146000
     49 H25         2.2910    1.0380    9.2960 ho        1 CZB      0.422000
     50 H34         0.5360   -2.6360   -1.0600 ho        1 CZB      0.408000
     51 H101        0.6960    0.8030   -2.7170 hc        1 CZB      0.077200
     52 H102        1.4220    1.8750   -1.4440 hc        1 CZB      0.077200
     53 H12         3.0820   -0.7380   -3.6420 ha        1 CZB      0.146000
     54 H13         4.8920   -0.1700   -5.2480 ha        1 CZB      0.146500
     55 H15         4.4540    4.0270   -4.2420 ha        1 CZB      0.146500
     56 H16         2.6510    3.4500   -2.6450 ha        1 CZB      0.146000
@<TRIPOS>BOND
     1    1    2 2   
     2    2    3 1   
     3    2   24 1   
     4    3    4 1   
     5    3    5 1   
     6    4   15 2   
     7    4   35 1   
     8    5    6 1   
     9    5   23 2   
    10    6    7 1   
    11    6   14 1   
    12    6   36 1   
    13    7    8 1   
    14    7   37 1   
    15    7   38 1   
    16    8    9 ar  
    17    8   13 ar  
    18    9   10 ar  
    19    9   39 1   
    20   10   11 ar  
    21   10   40 1   
    22   11   12 ar  
    23   11   41 1   
    24   12   13 ar  
    25   12   42 1   
    26   13   43 1   
    27   14   15 1   
    28   14   44 1   
    29   15   16 1   
    30   16   17 ar  
    31   16   19 ar  
    32   17   18 ar  
    33   17   45 1   
    34   18   21 ar  
    35   18   46 1   
    36   19   20 ar  
    37   19   47 1   
    38   20   21 ar  
    39   20   48 1   
    40   21   22 1   
    41   22   49 1   
    42   23   24 1   
    43   24   25 1   
    44   24   27 1   
    45   25   26 1   
    46   26   50 1   
    47   27   28 1   
    48   27   51 1   
    49   27   52 1   
    50   28   29 ar  
    51   28   34 ar  
    52   29   30 ar  
    53   29   53 1   
    54   30   31 ar  
    55   30   54 1   
    56   31   32 1   
    57   31   33 ar  
    58   33   34 ar  
    59   33   55 1   
    60   34   56 1   
@<TRIPOS>SUBSTRUCTURE
     1 CZB         1 TEMP              0 ****  ****    0 ROOT
