@<TRIPOS>MOLECULE
CZB
   56    60     1     0     0
SMALL
bcc


@<TRIPOS>ATOM
      1 O18        -0.2790    0.0010    0.1150 o         1 CZB     -0.557500
      2 C3          0.9430   -0.1230    0.0570 c         1 CZB      0.646500
      3 N4          1.8300   -0.2800    1.1420 n         1 CZB     -0.344500
      4 C5          1.6360   -0.0070    2.4940 c2        1 CZB     -0.079400
      5 C9          3.1620   -0.3920    0.6130 c2        1 CZB      0.427900
      6 C8          4.2980   -0.5930    1.6150 c3        1 CZB      0.177200
      7 C26         4.5300   -2.1190    1.7430 c3        1 CZB     -0.030100
      8 C27         5.3810   -2.6330    0.6360 ca        1 CZB     -0.097300
      9 C28         6.7760   -2.5680    0.7420 ca        1 CZB     -0.114000
     10 C29         7.5830   -3.0720   -0.2760 ca        1 CZB     -0.129500
     11 C30         7.0030   -3.6470   -1.4070 ca        1 CZB     -0.125000
     12 C31         5.6150   -3.7130   -1.5190 ca        1 CZB     -0.129500
     13 C32         4.8050   -3.2080   -0.5020 ca        1 CZB     -0.114000
     14 N7          4.0500    0.0190    2.9140 nu        1 CZB     -0.718000
     15 C6          2.7040    0.1690    3.3330 ce        1 CZB      0.081800
     16 C19         2.4730    0.5030    4.7460 ca        1 CZB     -0.089800
     17 C20         1.4560    1.4090    5.0870 ca        1 CZB     -0.073000
     18 C21         1.2070    1.7290    6.4160 ca        1 CZB     -0.189000
     19 C24         3.2460   -0.0810    5.7570 ca        1 CZB     -0.073000
     20 C23         3.0100    0.2310    7.0930 ca        1 CZB     -0.189000
     21 C22         1.9900    1.1350    7.4200 ca        1 CZB      0.134100
     22 O25         1.6990    1.4910    8.7150 oh        1 CZB     -0.494100
     23 N1          3.2480   -0.3520   -0.6970 n2        1 CZB     -0.574900
     24 C2          1.8660   -0.2000   -1.2300 c3        1 CZB      0.217000
     25 O33         1.4350   -1.3310   -2.0410 os        1 CZB     -0.173800
     26 O34         1.4290   -2.4510   -1.4100 oh        1 CZB     -0.388000
     27 C10         1.6390    1.0320   -2.1130 c3        1 CZB     -0.009100
     28 C11         2.7570    1.3440   -3.0410 ca        1 CZB     -0.065300
     29 C12         3.3840    0.3360   -3.7830 ca        1 CZB     -0.113500
     30 C13         4.4040    0.6510   -4.6780 ca        1 CZB     -0.104500
     31 C14         4.8050    1.9800   -4.8430 ca        1 CZB     -0.023900
     32 Br17        6.1730    2.4060   -6.0490 br        1 CZB     -0.093100
     33 C15         4.1830    2.9910   -4.1050 ca        1 CZB     -0.104500
     34 C16         3.1660    2.6720   -3.2080 ca        1 CZB     -0.113500
     35 H5          0.5860    0.0220    2.8280 h4        1 CZB      0.180000
     36 H8          5.2370   -0.1330    1.1810 h1        1 CZB      0.096700
     37 H261        3.5430   -2.6500    1.7570 hc        1 CZB      0.066700
     38 H262        5.0360   -2.3310    2.7240 hc        1 CZB      0.066700
     39 H28         7.2350   -2.1190    1.6350 ha        1 CZB      0.136000
     40 H29         8.6780   -3.0170   -0.1860 ha        1 CZB      0.132000
     41 H30         7.6410   -4.0450   -2.2100 ha        1 CZB      0.131000
     42 H31         5.1540   -4.1590   -2.4120 ha        1 CZB      0.132000
     43 H32         3.7080   -3.2480   -0.6070 ha        1 CZB      0.136000
     44 HN7         4.5670    0.8670    3.0420 hn        1 CZB      0.400800
     45 H20         0.8500    1.8750    4.2950 ha        1 CZB      0.144500
     46 H21         0.4130    2.4370    6.6930 ha        1 CZB      0.146000
     47 H24         4.0430   -0.7960    5.4990 ha        1 CZB      0.144500
     48 H23         3.6170   -0.2310    7.8850 ha        1 CZB      0.146000
     49 H25         2.3030    1.0110    9.3010 ho        1 CZB      0.422000
     50 H34         0.5130   -2.5990   -1.0700 ho        1 CZB      0.408000
     51 H101        1.4400    1.9060   -1.4360 hc        1 CZB      0.077200
     52 H102        0.7040    0.8450   -2.7130 hc        1 CZB      0.077200
     53 H12         3.0760   -0.7130   -3.6450 ha        1 CZB      0.146000
     54 H13         4.8910   -0.1550   -5.2500 ha        1 CZB      0.146500
     55 H15         4.4920    4.0410   -4.2250 ha        1 CZB      0.146500
     56 H16         2.6840    3.4750   -2.6300 ha        1 CZB      0.146000
@<TRIPOS>BOND
     1    1    2 2   
     2    2    3 1   
     3    2   24 1   
     4    3    4 1   
     5    3    5 1   
     6    4   15 2   
     7    4   35 1   
     8    5    6 1   
     9    5   23 2   
    10    6    7 1   
    11    6   14 1   
    12    6   36 1   
    13    7    8 1   
    14    7   37 1   
    15    7   38 1   
    16    8    9 ar  
    17    8   13 ar  
    18    9   10 ar  
    19    9   39 1   
    20   10   11 ar  
    21   10   40 1   
    22   11   12 ar  
    23   11   41 1   
    24   12   13 ar  
    25   12   42 1   
    26   13   43 1   
    27   14   15 1   
    28   14   44 1   
    29   15   16 1   
    30   16   17 ar  
    31   16   19 ar  
    32   17   18 ar  
    33   17   45 1   
    34   18   21 ar  
    35   18   46 1   
    36   19   20 ar  
    37   19   47 1   
    38   20   21 ar  
    39   20   48 1   
    40   21   22 1   
    41   22   49 1   
    42   23   24 1   
    43   24   25 1   
    44   24   27 1   
    45   25   26 1   
    46   26   50 1   
    47   27   28 1   
    48   27   51 1   
    49   27   52 1   
    50   28   29 ar  
    51   28   34 ar  
    52   29   30 ar  
    53   29   53 1   
    54   30   31 ar  
    55   30   54 1   
    56   31   32 1   
    57   31   33 ar  
    58   33   34 ar  
    59   33   55 1   
    60   34   56 1   
@<TRIPOS>SUBSTRUCTURE
     1 CZB         1 TEMP              0 ****  ****    0 ROOT
