@<TRIPOS>MOLECULE
CZB
   56    60     1     0     0
SMALL
bcc


@<TRIPOS>ATOM
      1 O18        -1.3380    2.8170   -2.1720 o         1 CZB     -0.539500
      2 C3         -1.0150    1.8220   -1.5310 c         1 CZB      0.667500
      3 N4         -1.8940    0.9070   -0.8990 n         1 CZB     -0.349500
      4 C5         -3.2480    1.0340   -0.6010 c2        1 CZB     -0.064400
      5 C9         -1.1000   -0.0750   -0.2220 c2        1 CZB      0.433900
      6 C8         -1.8450   -1.1810    0.5250 c3        1 CZB      0.173200
      7 C26        -2.0300   -2.3650   -0.4520 c3        1 CZB     -0.033100
      8 C27        -0.7360   -3.0110   -0.7980 ca        1 CZB     -0.082300
      9 C28        -0.0270   -3.7400    0.1660 ca        1 CZB     -0.125500
     10 C29         1.1730   -4.3650   -0.1660 ca        1 CZB     -0.129500
     11 C30         1.6750   -4.2720   -1.4640 ca        1 CZB     -0.123000
     12 C31         0.9730   -3.5520   -2.4300 ca        1 CZB     -0.129500
     13 C32        -0.2290   -2.9260   -2.1000 ca        1 CZB     -0.125500
     14 N7         -3.1250   -0.7530    1.0750 nh        1 CZB     -0.710000
     15 C6         -3.8290    0.2590    0.3680 ce        1 CZB      0.062800
     16 C19        -5.2490    0.4450    0.6970 ca        1 CZB     -0.085800
     17 C20        -5.7870    1.7410    0.7430 ca        1 CZB     -0.074000
     18 C21        -7.1290    1.9430    1.0370 ca        1 CZB     -0.189000
     19 C24        -6.0760   -0.6550    0.9570 ca        1 CZB     -0.074000
     20 C23        -7.4230   -0.4700    1.2550 ca        1 CZB     -0.189000
     21 C22        -7.9480    0.8300    1.2930 ca        1 CZB      0.133100
     22 O25        -9.2660    1.0910    1.5810 oh        1 CZB     -0.494100
     23 N1          0.2010    0.0730   -0.3470 n2        1 CZB     -0.604900
     24 C2          0.4320    1.2660   -1.2080 c3        1 CZB      0.216000
     25 O33         1.1170    0.9560   -2.4540 os        1 CZB     -0.170800
     26 O34         0.5880    0.0030   -3.1310 oh        1 CZB     -0.391000
     27 C10         1.2670    2.3820   -0.5650 c3        1 CZB     -0.012100
     28 C11         2.5000    1.8980    0.1090 ca        1 CZB     -0.059300
     29 C12         3.5430    1.3400   -0.6390 ca        1 CZB     -0.115500
     30 C13         4.7130    0.9160   -0.0140 ca        1 CZB     -0.104000
     31 C14         4.8530    1.0500    1.3700 ca        1 CZB     -0.023900
     32 BR17        6.4260    0.4830    2.2140 br        1 CZB     -0.092100
     33 C15         3.8160    1.6060    2.1240 ca        1 CZB     -0.104000
     34 C16         2.6460    2.0270    1.4940 ca        1 CZB     -0.115500
     35 H5         -3.8020    1.7660   -1.2130 h4        1 CZB      0.182000
     36 H8         -1.1900   -1.5330    1.3790 h1        1 CZB      0.091700
     37 H261       -2.6980   -3.1260    0.0350 hc        1 CZB      0.069700
     38 H262       -2.5510   -2.0060   -1.3790 hc        1 CZB      0.069700
     39 H28        -0.4220   -3.8180    1.1900 ha        1 CZB      0.133000
     40 H29         1.7250   -4.9310    0.5980 ha        1 CZB      0.133500
     41 H30         2.6230   -4.7640   -1.7240 ha        1 CZB      0.134000
     42 H31         1.3630   -3.4800   -3.4560 ha        1 CZB      0.133500
     43 H32        -0.7810   -2.3610   -2.8680 ha        1 CZB      0.133000
     44 HN7        -3.0610   -0.5280    2.0490 hn        1 CZB      0.395800
     45 H20        -5.1390    2.6100    0.5470 ha        1 CZB      0.144000
     46 H21        -7.5600    2.9540    1.0730 ha        1 CZB      0.145500
     47 H24        -5.6650   -1.6760    0.9200 ha        1 CZB      0.144000
     48 H23        -8.0700   -1.3350    1.4550 ha        1 CZB      0.145500
     49 H25        -9.7140    0.2460    1.7280 ho        1 CZB      0.421000
     50 H34         0.9970   -0.8510   -2.8420 ho        1 CZB      0.415000
     51 H101        1.5420    3.1020   -1.3850 hc        1 CZB      0.077700
     52 H102        0.6100    2.9270    0.1650 hc        1 CZB      0.077700
     53 H12         3.4270    1.2280   -1.7300 ha        1 CZB      0.142000
     54 H13         5.5220    0.4770   -0.6180 ha        1 CZB      0.146000
     55 H15         3.9140    1.7150    3.2150 ha        1 CZB      0.146000
     56 H16         1.8340    2.4620    2.0970 ha        1 CZB      0.142000
@<TRIPOS>BOND
     1    1    2 2   
     2    2    3 1   
     3    2   24 1   
     4    3    4 1   
     5    3    5 1   
     6    4   15 2   
     7    4   35 1   
     8    5    6 1   
     9    5   23 2   
    10    6    7 1   
    11    6   14 1   
    12    6   36 1   
    13    7    8 1   
    14    7   37 1   
    15    7   38 1   
    16    8    9 ar  
    17    8   13 ar  
    18    9   10 ar  
    19    9   39 1   
    20   10   11 ar  
    21   10   40 1   
    22   11   12 ar  
    23   11   41 1   
    24   12   13 ar  
    25   12   42 1   
    26   13   43 1   
    27   14   15 1   
    28   14   44 1   
    29   15   16 1   
    30   16   17 ar  
    31   16   19 ar  
    32   17   18 ar  
    33   17   45 1   
    34   18   21 ar  
    35   18   46 1   
    36   19   20 ar  
    37   19   47 1   
    38   20   21 ar  
    39   20   48 1   
    40   21   22 1   
    41   22   49 1   
    42   23   24 1   
    43   24   25 1   
    44   24   27 1   
    45   25   26 1   
    46   26   50 1   
    47   27   28 1   
    48   27   51 1   
    49   27   52 1   
    50   28   29 ar  
    51   28   34 ar  
    52   29   30 ar  
    53   29   53 1   
    54   30   31 ar  
    55   30   54 1   
    56   31   32 1   
    57   31   33 ar  
    58   33   34 ar  
    59   33   55 1   
    60   34   56 1   
@<TRIPOS>SUBSTRUCTURE
     1 CZB         1 TEMP              0 ****  ****    0 ROOT
