@<TRIPOS>MOLECULE
CZH
   55    59     1     0     0
SMALL
bcc


@<TRIPOS>ATOM
      1 N1          0.0140    0.1810    0.1080 n2        1 CZH     -0.337200
      2 C2          1.4980    0.1680    0.0500 c3        1 CZH      0.230000
      3 C3          1.9730    0.0560    1.5560 c         1 CZH      0.555300
      4 N4          0.7590    0.0010    2.3040 n         1 CZH     -0.169200
      5 C5          0.5220   -0.0700    3.6590 cc        1 CZH     -0.097600
      6 C6         -0.7820   -0.0970    4.1280 cd        1 CZH      0.358800
      7 N7         -1.8890   -0.0280    3.2710 nd        1 CZH     -0.590000
      8 C8         -1.7000    0.0590    1.9800 cc        1 CZH      0.424600
      9 C9         -0.3360    0.0880    1.3780 cc        1 CZH     -0.006600
     10 C10         2.1110   -0.9960   -0.7470 c3        1 CZH     -0.002100
     11 C11         1.5380   -1.1490   -2.1080 ca        1 CZH     -0.115300
     12 C12         1.8750   -0.2410   -3.1190 ca        1 CZH     -0.076000
     13 C13         1.3710   -0.3940   -4.4070 ca        1 CZH     -0.186500
     14 C14         0.5170   -1.4710   -4.6840 ca        1 CZH      0.129100
     15 C15         0.1660   -2.3890   -3.6800 ca        1 CZH     -0.186500
     16 C16         0.6800   -2.2170   -2.4000 ca        1 CZH     -0.076000
     17 O17        -0.0200   -1.6920   -5.9320 oh        1 CZH     -0.497100
     18 O18         3.1020   -0.0050    2.0260 o         1 CZH     -0.522500
     19 C19        -1.0300   -0.1980    5.5710 ca        1 CZH     -0.164500
     20 C20        -2.0870    0.5030    6.1670 ca        1 CZH     -0.072000
     21 C21        -2.3050    0.4140    7.5390 ca        1 CZH     -0.188000
     22 C22        -1.4600   -0.3860    8.3220 ca        1 CZH      0.132100
     23 C23        -0.4020   -1.1010    7.7360 ca        1 CZH     -0.188000
     24 C24        -0.1980   -1.0030    6.3650 ca        1 CZH     -0.072000
     25 O25        -1.6120   -0.5190    9.6820 oh        1 CZH     -0.495100
     26 C26        -2.8190    0.1350    0.9810 c3        1 CZH     -0.080400
     27 C27        -4.1810    0.1980    1.5770 ca        1 CZH     -0.076300
     28 C28        -4.8800    1.4100    1.6100 ca        1 CZH     -0.113000
     29 C29        -6.1690    1.4630    2.1390 ca        1 CZH     -0.130500
     30 C30        -6.7680    0.3080    2.6410 ca        1 CZH     -0.127000
     31 C31        -6.0750   -0.9020    2.6110 ca        1 CZH     -0.130500
     32 C32        -4.7870   -0.9590    2.0810 ca        1 CZH     -0.113000
     33 O33         2.0770    1.3680   -0.5330 os        1 CZH     -0.171800
     34 O34         1.6310    2.4670   -0.0410 oh        1 CZH     -0.387000
     35 H5          1.4120   -0.1000    4.3120 h4        1 CZH      0.186000
     36 H101        1.9630   -1.9360   -0.1510 hc        1 CZH      0.074200
     37 H102        3.2160   -0.7970   -0.8160 hc        1 CZH      0.074200
     38 H12         2.5400    0.6060   -2.8850 ha        1 CZH      0.138500
     39 H13         1.6390    0.3210   -5.1970 ha        1 CZH      0.143000
     40 H15        -0.5060   -3.2240   -3.9180 ha        1 CZH      0.143000
     41 H16         0.4060   -2.9320   -1.6090 ha        1 CZH      0.138500
     42 H17         0.2950   -0.9900   -6.5200 ho        1 CZH      0.420000
     43 H20        -2.7540    1.1270    5.5530 ha        1 CZH      0.143000
     44 H21        -3.1340    0.9660    8.0040 ha        1 CZH      0.145000
     45 H23         0.2450   -1.7270    8.3650 ha        1 CZH      0.145000
     46 H24         0.6200   -1.5740    5.9010 ha        1 CZH      0.143000
     47 H25        -2.3760    0.0110    9.9510 ho        1 CZH      0.421000
     48 H261       -2.7400   -0.7700    0.3160 hc        1 CZH      0.078700
     49 H262       -2.6410    1.0400    0.3360 hc        1 CZH      0.078700
     50 H28        -4.4120    2.3250    1.2170 ha        1 CZH      0.131500
     51 H29        -6.7120    2.4190    2.1620 ha        1 CZH      0.131500
     52 H30        -7.7840    0.3510    3.0580 ha        1 CZH      0.131000
     53 H31        -6.5440   -1.8140    3.0090 ha        1 CZH      0.131500
     54 H32        -4.2400   -1.9130    2.0660 ha        1 CZH      0.131500
     55 H34         0.8810    2.7730   -0.6050 ho        1 CZH      0.412000
@<TRIPOS>BOND
     1    1    2 1   
     2    1    9 2   
     3    2    3 1   
     4    2   10 1   
     5    2   33 1   
     6    3    4 1   
     7    3   18 2   
     8    4    5 1   
     9    4    9 1   
    10    5    6 2   
    11    5   35 1   
    12    6    7 1   
    13    6   19 1   
    14    7    8 2   
    15    8    9 1   
    16    8   26 1   
    17   10   11 1   
    18   10   36 1   
    19   10   37 1   
    20   11   12 ar  
    21   11   16 ar  
    22   12   13 ar  
    23   12   38 1   
    24   13   14 ar  
    25   13   39 1   
    26   14   15 ar  
    27   14   17 1   
    28   15   16 ar  
    29   15   40 1   
    30   16   41 1   
    31   17   42 1   
    32   19   20 ar  
    33   19   24 ar  
    34   20   21 ar  
    35   20   43 1   
    36   21   22 ar  
    37   21   44 1   
    38   22   23 ar  
    39   22   25 1   
    40   23   24 ar  
    41   23   45 1   
    42   24   46 1   
    43   25   47 1   
    44   26   27 1   
    45   26   48 1   
    46   26   49 1   
    47   27   28 ar  
    48   27   32 ar  
    49   28   29 ar  
    50   28   50 1   
    51   29   30 ar  
    52   29   51 1   
    53   30   31 ar  
    54   30   52 1   
    55   31   32 ar  
    56   31   53 1   
    57   32   54 1   
    58   33   34 1   
    59   34   55 1   
@<TRIPOS>SUBSTRUCTURE
     1 CZH         1 TEMP              0 ****  ****    0 ROOT
