@<TRIPOS>MOLECULE
CZH
   55    59     1     0     0
SMALL
bcc


@<TRIPOS>ATOM
      1 N1          0.0130    0.1800    0.1080 n2        1 CZH     -0.337200
      2 C2          1.4970    0.1720    0.0510 c3        1 CZH      0.230000
      3 C3          1.9720    0.0630    1.5570 c         1 CZH      0.555300
      4 N4          0.7580    0.0040    2.3040 n         1 CZH     -0.169200
      5 C5          0.5210   -0.0660    3.6590 cc        1 CZH     -0.097600
      6 C6         -0.7840   -0.0960    4.1280 cd        1 CZH      0.358800
      7 N7         -1.8900   -0.0320    3.2700 nd        1 CZH     -0.590000
      8 C8         -1.7020    0.0540    1.9800 cc        1 CZH      0.424600
      9 C9         -0.3370    0.0880    1.3780 cc        1 CZH     -0.006600
     10 C10         2.1140   -0.9910   -0.7450 c3        1 CZH     -0.002100
     11 C11         1.5420   -1.1470   -2.1060 ca        1 CZH     -0.115300
     12 C12         1.8790   -0.2390   -3.1180 ca        1 CZH     -0.076000
     13 C13         1.3760   -0.3950   -4.4060 ca        1 CZH     -0.186500
     14 C14         0.5240   -1.4740   -4.6830 ca        1 CZH      0.129100
     15 C15         0.1750   -2.3910   -3.6780 ca        1 CZH     -0.186500
     16 C16         0.6870   -2.2170   -2.3970 ca        1 CZH     -0.076000
     17 O17        -0.0110   -1.6970   -5.9310 oh        1 CZH     -0.497100
     18 O18         3.1000    0.0060    2.0270 o         1 CZH     -0.522500
     19 C19        -1.0320   -0.1960    5.5710 ca        1 CZH     -0.164500
     20 C20        -2.0910    0.5020    6.1660 ca        1 CZH     -0.072000
     21 C21        -2.3090    0.4140    7.5380 ca        1 CZH     -0.188000
     22 C22        -1.4620   -0.3820    8.3220 ca        1 CZH      0.132100
     23 C23        -0.4020   -1.0950    7.7370 ca        1 CZH     -0.188000
     24 C24        -0.1980   -0.9990    6.3660 ca        1 CZH     -0.072000
     25 O25        -1.6140   -0.5150    9.6820 oh        1 CZH     -0.495100
     26 C26        -2.8210    0.1260    0.9800 c3        1 CZH     -0.080400
     27 C27        -4.1830    0.1920    1.5750 ca        1 CZH     -0.076300
     28 C28        -4.8900    1.3990    1.5820 ca        1 CZH     -0.112500
     29 C29        -6.1790    1.4550    2.1100 ca        1 CZH     -0.130500
     30 C30        -6.7700    0.3070    2.6370 ca        1 CZH     -0.127000
     31 C31        -6.0680   -0.8990    2.6350 ca        1 CZH     -0.130500
     32 C32        -4.7800   -0.9580    2.1060 ca        1 CZH     -0.112500
     33 O33         2.0720    1.3730   -0.5330 os        1 CZH     -0.171800
     34 O34         1.6230    2.4710   -0.0430 oh        1 CZH     -0.387000
     35 H5          1.4100   -0.0930    4.3130 h4        1 CZH      0.186000
     36 H101        3.2180   -0.7890   -0.8130 hc        1 CZH      0.074200
     37 H102        1.9680   -1.9310   -0.1490 hc        1 CZH      0.074200
     38 H12         2.5410    0.6100   -2.8840 ha        1 CZH      0.138500
     39 H13         1.6420    0.3200   -5.1970 ha        1 CZH      0.143000
     40 H15        -0.4960   -3.2280   -3.9160 ha        1 CZH      0.143000
     41 H16         0.4140   -2.9320   -1.6060 ha        1 CZH      0.138500
     42 H17         0.3040   -0.9960   -6.5200 ho        1 CZH      0.420000
     43 H20        -2.7600    1.1240    5.5510 ha        1 CZH      0.143000
     44 H21        -3.1390    0.9640    8.0030 ha        1 CZH      0.145000
     45 H23         0.2460   -1.7200    8.3680 ha        1 CZH      0.145000
     46 H24         0.6220   -1.5680    5.9030 ha        1 CZH      0.143000
     47 H25        -2.3800    0.0130    9.9500 ho        1 CZH      0.421000
     48 H261       -2.6420    1.0280    0.3310 hc        1 CZH      0.078700
     49 H262       -2.7410   -0.7830    0.3200 hc        1 CZH      0.078700
     50 H28        -4.4290    2.3080    1.1690 ha        1 CZH      0.131500
     51 H29        -6.7290    2.4070    2.1110 ha        1 CZH      0.131500
     52 H30        -7.7870    0.3520    3.0540 ha        1 CZH      0.131000
     53 H31        -6.5300   -1.8050    3.0520 ha        1 CZH      0.131500
     54 H32        -4.2260   -1.9080    2.1110 ha        1 CZH      0.131500
     55 H34         0.8730    2.7750   -0.6070 ho        1 CZH      0.412000
@<TRIPOS>BOND
     1    1    2 1   
     2    1    9 2   
     3    2    3 1   
     4    2   10 1   
     5    2   33 1   
     6    3    4 1   
     7    3   18 2   
     8    4    5 1   
     9    4    9 1   
    10    5    6 2   
    11    5   35 1   
    12    6    7 1   
    13    6   19 1   
    14    7    8 2   
    15    8    9 1   
    16    8   26 1   
    17   10   11 1   
    18   10   36 1   
    19   10   37 1   
    20   11   12 ar  
    21   11   16 ar  
    22   12   13 ar  
    23   12   38 1   
    24   13   14 ar  
    25   13   39 1   
    26   14   15 ar  
    27   14   17 1   
    28   15   16 ar  
    29   15   40 1   
    30   16   41 1   
    31   17   42 1   
    32   19   20 ar  
    33   19   24 ar  
    34   20   21 ar  
    35   20   43 1   
    36   21   22 ar  
    37   21   44 1   
    38   22   23 ar  
    39   22   25 1   
    40   23   24 ar  
    41   23   45 1   
    42   24   46 1   
    43   25   47 1   
    44   26   27 1   
    45   26   48 1   
    46   26   49 1   
    47   27   28 ar  
    48   27   32 ar  
    49   28   29 ar  
    50   28   50 1   
    51   29   30 ar  
    52   29   51 1   
    53   30   31 ar  
    54   30   52 1   
    55   31   32 ar  
    56   31   53 1   
    57   32   54 1   
    58   33   34 1   
    59   34   55 1   
@<TRIPOS>SUBSTRUCTURE
     1 CZH         1 TEMP              0 ****  ****    0 ROOT
