@<TRIPOS>MOLECULE
CZH
   55    50     1     0     0
SMALL
bcc


@<TRIPOS>ATOM
      1 N1          0.6610   -0.3410   -1.5470 n1        1 CZH     -0.233000
      2 C2          2.0330   -0.3010   -1.5820 c2        1 CZH      0.085000
      3 C3          2.3800   -0.2920   -0.0080 c2        1 CZH      0.279000
      4 N4          1.0360   -0.3330    0.6810 n         1 CZH     -0.262000
      5 C5          0.6040   -0.0010    2.0170 c2        1 CZH     -0.008000
      6 C6         -0.8250    0.4190    2.2640 c1        1 CZH     -0.078000
      7 N7         -1.7200    0.5170    1.1860 n1        1 CZH     -0.062000
      8 C8         -1.2990    0.1600   -0.1100 c1        1 CZH      0.000000
      9 C9          0.1350   -0.3590   -0.3370 c1        1 CZH      0.088000
     10 C10         2.6720   -1.4330   -2.3580 c3        1 CZH     -0.085000
     11 C11         3.9350   -0.9360   -3.0290 c2        1 CZH     -0.121000
     12 C12         5.1560   -1.0630   -2.3860 c2        1 CZH     -0.074000
     13 C13         6.3240   -0.6950   -3.0360 c1        1 CZH     -0.156000
     14 C14         6.2700   -0.1990   -4.3290 c1        1 CZH      0.087000
     15 C15         5.0490   -0.0720   -4.9720 c1        1 CZH     -0.189000
     16 C16         3.8820   -0.4400   -4.3220 c1        1 CZH     -0.068000
     17 O17         7.4500    0.2260   -4.9690 oh        1 CZH     -0.250000
     18 O18         3.4470   -0.5930    0.4900 o         1 CZH     -0.247000
     19 C19        -1.3270    0.5920    3.6820 c2        1 CZH     -0.057000
     20 C20        -1.2960    1.8410    4.2810 c2        1 CZH     -0.085000
     21 C21        -1.7810    2.0040    5.5690 c1        1 CZH     -0.216000
     22 C22        -2.2960    0.9180    6.2580 c1        1 CZH      0.087000
     23 C23        -2.3270   -0.3310    5.6590 c1        1 CZH     -0.189000
     24 C24        -1.8430   -0.4950    4.3710 c1        1 CZH     -0.060000
     25 O25        -2.7500    1.0750    7.5810 oh        1 CZH     -0.250000
     26 C26        -2.2470    0.3060   -1.2830 c3        1 CZH     -0.071000
     27 C27        -3.6400   -0.1160   -0.8620 c2        1 CZH     -0.071000
     28 C28        -4.5210    0.8220   -0.3450 c2        1 CZH     -0.105000
     29 C29        -5.8270    0.4610   -0.0560 c1        1 CZH     -0.130000
     30 C30        -6.2540   -0.8380   -0.2830 c1        1 CZH     -0.129000
     31 C31        -5.3740   -1.7760   -0.7990 c1        1 CZH     -0.129000
     32 C32        -4.0670   -1.4150   -1.0880 c1        1 CZH     -0.120000
     33 O33         2.5130    0.8030   -2.2350 os        1 CZH     -0.086000
     34 O34         1.7060    1.9510   -1.8030 oh        1 CZH     -0.189000
     35 H5          1.2280   -0.0700    2.7630 h4        1 CZH      0.186000
     36 H101        2.8940   -2.1630   -1.7460 hc        1 CZH      0.111500
     37 H102        2.0470   -1.7570   -3.0380 hc        1 CZH      0.111500
     38 H12         5.1940   -1.4120   -1.4750 ha        1 CZH      0.145000
     39 H13         7.1840   -0.7840   -2.5830 ha        1 CZH      0.153000
     40 H15         5.0120    0.2780   -5.8830 ha        1 CZH      0.144000
     41 H16         3.0220   -0.3500   -4.7750 ha        1 CZH      0.134000
     42 H17         7.5210    1.1100   -4.9030 ho        1 CZH      0.218500
     43 H20        -0.9330    2.6060    3.7950 ha        1 CZH      0.134000
     44 H21        -1.7590    2.8860    5.9920 ha        1 CZH      0.136000
     45 H23        -2.6910   -1.0970    6.1450 ha        1 CZH      0.144000
     46 H24        -1.8650   -1.3750    3.9490 ha        1 CZH      0.154000
     47 H25        -3.5830    1.3870    7.5740 ho        1 CZH      0.218500
     48 H261       -1.9430   -0.2620   -2.0200 hc        1 CZH      0.116500
     49 H262       -2.2630    1.2390   -1.5750 hc        1 CZH      0.116500
     50 H28        -4.2210    1.7370   -0.1850 ha        1 CZH      0.134000
     51 H29        -6.4480    1.1230    0.3080 ha        1 CZH      0.132000
     52 H30        -7.1730   -1.0920   -0.0790 ha        1 CZH      0.131000
     53 H31        -5.6750   -2.6910   -0.9590 ha        1 CZH      0.131000
     54 H32        -3.4480   -2.0760   -1.4520 ha        1 CZH      0.130000
     55 H34         2.0420    2.6980   -2.1510 ho        1 CZH      0.210000
@<TRIPOS>BOND
     1    1    9 1   
     2    2    3 1   
     3    2   10 1   
     4    2   33 1   
     5    3    4 1   
     6    3   18 1   
     7    4    5 1   
     8    4    9 1   
     9    5    6 1   
    10    5   35 1   
    11    6   19 1   
    12    7    8 1   
    13    8   26 1   
    14   10   11 1   
    15   10   36 1   
    16   10   37 1   
    17   11   12 1   
    18   11   16 1   
    19   12   13 1   
    20   12   38 1   
    21   13   39 1   
    22   14   15 1   
    23   14   17 1   
    24   15   40 1   
    25   16   41 1   
    26   17   42 1   
    27   19   20 1   
    28   19   24 1   
    29   20   21 1   
    30   20   43 1   
    31   21   44 1   
    32   22   23 1   
    33   22   25 1   
    34   23   45 1   
    35   24   46 1   
    36   25   47 1   
    37   26   27 1   
    38   26   48 1   
    39   26   49 1   
    40   27   28 1   
    41   27   32 1   
    42   28   29 1   
    43   28   50 1   
    44   29   51 1   
    45   30   31 1   
    46   30   52 1   
    47   31   53 1   
    48   32   54 1   
    49   33   34 1   
    50   34   55 1   
@<TRIPOS>SUBSTRUCTURE
     1 CZH         1 TEMP              0 ****  ****    0 ROOT
