@<TRIPOS>MOLECULE
CZH
   55    59     1     0     0
SMALL
bcc


@<TRIPOS>ATOM
      1 N1          0.2150   -0.4250    1.7100 n2        1 CZH     -0.337200
      2 C2          1.5630   -0.3920    2.3320 c3        1 CZH      0.230000
      3 C3          2.5690   -0.1510    1.1350 c         1 CZH      0.555300
      4 N4          1.7290   -0.0560   -0.0150 n         1 CZH     -0.169200
      5 C5          2.0230    0.1200   -1.3490 cc        1 CZH     -0.097600
      6 C6          0.9950    0.1640   -2.2790 cd        1 CZH      0.358800
      7 N7         -0.3500    0.0080   -1.9180 nd        1 CZH     -0.590000
      8 C8         -0.6630   -0.1800   -0.6620 cc        1 CZH      0.424600
      9 C9          0.3700   -0.2360    0.4130 cc        1 CZH     -0.006600
     10 C10         1.7720    0.7130    3.3800 c3        1 CZH     -0.002100
     11 C11         0.7190    0.7460    4.4270 ca        1 CZH     -0.115300
     12 C12         0.6890   -0.2340    5.4260 ca        1 CZH     -0.076000
     13 C13        -0.2730   -0.1940    6.4300 ca        1 CZH     -0.186500
     14 C14        -1.2180    0.8420    6.4320 ca        1 CZH      0.129100
     15 C15        -1.2040    1.8310    5.4350 ca        1 CZH     -0.186500
     16 C16        -0.2350    1.7720    4.4400 ca        1 CZH     -0.076000
     17 O17        -2.1980    0.9520    7.3920 oh        1 CZH     -0.497100
     18 O18         3.7880   -0.0340    1.1380 o         1 CZH     -0.522500
     19 C19         1.3110    0.3760   -3.6960 ca        1 CZH     -0.164500
     20 C20         0.5940   -0.2910   -4.6980 ca        1 CZH     -0.072000
     21 C21         0.9100   -0.0960   -6.0400 ca        1 CZH     -0.188000
     22 C22         1.9510    0.7790   -6.3830 ca        1 CZH      0.132100
     23 C23         2.6720    1.4620   -5.3890 ca        1 CZH     -0.188000
     24 C24         2.3430    1.2570   -4.0550 ca        1 CZH     -0.072000
     25 O25         2.3210    1.0190   -7.6850 oh        1 CZH     -0.495100
     26 C26        -2.0730   -0.3550   -0.1750 c3        1 CZH     -0.080400
     27 C27        -3.1010   -0.3990   -1.2500 ca        1 CZH     -0.076300
     28 C28        -3.6920   -1.6160   -1.6090 ca        1 CZH     -0.112500
     29 C29        -4.6790   -1.6530   -2.5940 ca        1 CZH     -0.130500
     30 C30        -5.0800   -0.4780   -3.2280 ca        1 CZH     -0.127000
     31 C31        -4.4920    0.7370   -2.8750 ca        1 CZH     -0.130500
     32 C32        -3.5070    0.7780   -1.8900 ca        1 CZH     -0.112500
     33 O33         1.9310   -1.6250    3.0090 os        1 CZH     -0.171800
     34 O34         1.7570   -2.6890    2.3110 oh        1 CZH     -0.387000
     35 H5          3.0920    0.2180   -1.6090 h4        1 CZH      0.186000
     36 H101        2.7760    0.5290    3.8530 hc        1 CZH      0.074200
     37 H102        1.8180    1.6960    2.8400 hc        1 CZH      0.074200
     38 H12         1.4320   -1.0470    5.4060 ha        1 CZH      0.138500
     39 H13        -0.2920   -0.9650    7.2130 ha        1 CZH      0.143000
     40 H15        -1.9560    2.6320    5.4540 ha        1 CZH      0.143000
     41 H16        -0.2220    2.5430    3.6540 ha        1 CZH      0.138500
     42 H17        -2.0970    0.2110    8.0070 ho        1 CZH      0.420000
     43 H20        -0.2280   -0.9740   -4.4300 ha        1 CZH      0.143000
     44 H21         0.3470   -0.6220   -6.8230 ha        1 CZH      0.145000
     45 H23         3.4800    2.1480   -5.6790 ha        1 CZH      0.145000
     46 H24         2.8960    1.8030   -3.2750 ha        1 CZH      0.143000
     47 H25         1.7430    0.4990   -8.2610 ho        1 CZH      0.421000
     48 H261       -2.1100   -1.3040    0.4300 hc        1 CZH      0.078700
     49 H262       -2.2960    0.4980    0.5250 hc        1 CZH      0.078700
     50 H28        -3.3790   -2.5460   -1.1130 ha        1 CZH      0.131500
     51 H29        -5.1390   -2.6130   -2.8700 ha        1 CZH      0.131500
     52 H30        -5.8580   -0.5080   -4.0040 ha        1 CZH      0.131000
     53 H31        -4.8050    1.6650   -3.3750 ha        1 CZH      0.131500
     54 H32        -3.0400    1.7360   -1.6180 ha        1 CZH      0.131500
     55 H34         0.8650   -3.0520    2.5220 ho        1 CZH      0.412000
@<TRIPOS>BOND
     1    1    2 1   
     2    1    9 2   
     3    2    3 1   
     4    2   10 1   
     5    2   33 1   
     6    3    4 1   
     7    3   18 2   
     8    4    5 1   
     9    4    9 1   
    10    5    6 2   
    11    5   35 1   
    12    6    7 1   
    13    6   19 1   
    14    7    8 2   
    15    8    9 1   
    16    8   26 1   
    17   10   11 1   
    18   10   36 1   
    19   10   37 1   
    20   11   12 ar  
    21   11   16 ar  
    22   12   13 ar  
    23   12   38 1   
    24   13   14 ar  
    25   13   39 1   
    26   14   15 ar  
    27   14   17 1   
    28   15   16 ar  
    29   15   40 1   
    30   16   41 1   
    31   17   42 1   
    32   19   20 ar  
    33   19   24 ar  
    34   20   21 ar  
    35   20   43 1   
    36   21   22 ar  
    37   21   44 1   
    38   22   23 ar  
    39   22   25 1   
    40   23   24 ar  
    41   23   45 1   
    42   24   46 1   
    43   25   47 1   
    44   26   27 1   
    45   26   48 1   
    46   26   49 1   
    47   27   28 ar  
    48   27   32 ar  
    49   28   29 ar  
    50   28   50 1   
    51   29   30 ar  
    52   29   51 1   
    53   30   31 ar  
    54   30   52 1   
    55   31   32 ar  
    56   31   53 1   
    57   32   54 1   
    58   33   34 1   
    59   34   55 1   
@<TRIPOS>SUBSTRUCTURE
     1 CZH         1 TEMP              0 ****  ****    0 ROOT
