@<TRIPOS>MOLECULE
CZH
   55    59     1     0     0
SMALL
bcc


@<TRIPOS>ATOM
      1 N1          0.0150    0.1770    0.1090 n2        1 CZH     -0.337200
      2 C2          1.4990    0.1640    0.0520 c3        1 CZH      0.230000
      3 C3          1.9730    0.0530    1.5580 c         1 CZH      0.555300
      4 N4          0.7580   -0.0020    2.3050 n         1 CZH     -0.169200
      5 C5          0.5200   -0.0710    3.6600 cc        1 CZH     -0.097600
      6 C6         -0.7850   -0.0970    4.1280 cd        1 CZH      0.358800
      7 N7         -1.8900   -0.0300    3.2700 nd        1 CZH     -0.590000
      8 C8         -1.7010    0.0570    1.9800 cc        1 CZH      0.424600
      9 C9         -0.3360    0.0860    1.3790 cc        1 CZH     -0.006600
     10 C10         2.1120   -1.0000   -0.7430 c3        1 CZH     -0.002100
     11 C11         1.5410   -1.1540   -2.1060 ca        1 CZH     -0.115300
     12 C12         1.8800   -0.2470   -3.1160 ca        1 CZH     -0.076000
     13 C13         1.3780   -0.4010   -4.4050 ca        1 CZH     -0.186500
     14 C14         0.5230   -1.4770   -4.6830 ca        1 CZH      0.129100
     15 C15         0.1710   -2.3940   -3.6790 ca        1 CZH     -0.186500
     16 C16         0.6830   -2.2220   -2.3970 ca        1 CZH     -0.076000
     17 O17        -0.0110   -1.6980   -5.9310 oh        1 CZH     -0.497100
     18 O18         3.1010   -0.0070    2.0290 o         1 CZH     -0.522500
     19 C19        -1.0330   -0.1970    5.5710 ca        1 CZH     -0.164500
     20 C20        -2.0900    0.5050    6.1660 ca        1 CZH     -0.072000
     21 C21        -2.3090    0.4180    7.5380 ca        1 CZH     -0.188000
     22 C22        -1.4660   -0.3820    8.3220 ca        1 CZH      0.132100
     23 C23        -0.4070   -1.0980    7.7370 ca        1 CZH     -0.188000
     24 C24        -0.2030   -1.0020    6.3670 ca        1 CZH     -0.072000
     25 O25        -1.6190   -0.5140    9.6820 oh        1 CZH     -0.495100
     26 C26        -2.8190    0.1320    0.9800 c3        1 CZH     -0.080400
     27 C27        -4.1820    0.2010    1.5740 ca        1 CZH     -0.076300
     28 C28        -4.8840    1.4110    1.5860 ca        1 CZH     -0.112500
     29 C29        -6.1730    1.4700    2.1140 ca        1 CZH     -0.130500
     30 C30        -6.7690    0.3220    2.6350 ca        1 CZH     -0.127000
     31 C31        -6.0720   -0.8870    2.6270 ca        1 CZH     -0.130500
     32 C32        -4.7840   -0.9490    2.0980 ca        1 CZH     -0.112500
     33 O33         2.0790    1.3630   -0.5310 os        1 CZH     -0.171800
     34 O34         1.6320    2.4630   -0.0410 oh        1 CZH     -0.387000
     35 H5          1.4090   -0.1010    4.3140 h4        1 CZH      0.186000
     36 H101        3.2180   -0.8020   -0.8110 hc        1 CZH      0.074200
     37 H102        1.9630   -1.9400   -0.1480 hc        1 CZH      0.074200
     38 H12         2.5450    0.6000   -2.8820 ha        1 CZH      0.138500
     39 H13         1.6470    0.3140   -5.1950 ha        1 CZH      0.143000
     40 H15        -0.5020   -3.2290   -3.9170 ha        1 CZH      0.143000
     41 H16         0.4080   -2.9360   -1.6060 ha        1 CZH      0.138500
     42 H17         0.3050   -0.9970   -6.5190 ho        1 CZH      0.420000
     43 H20        -2.7570    1.1290    5.5510 ha        1 CZH      0.143000
     44 H21        -3.1390    0.9700    8.0020 ha        1 CZH      0.145000
     45 H23         0.2380   -1.7240    8.3680 ha        1 CZH      0.145000
     46 H24         0.6160   -1.5740    5.9040 ha        1 CZH      0.143000
     47 H25        -2.3830    0.0170    9.9500 ho        1 CZH      0.421000
     48 H261       -2.6380    1.0340    0.3310 hc        1 CZH      0.078700
     49 H262       -2.7420   -0.7770    0.3180 hc        1 CZH      0.078700
     50 H28        -4.4180    2.3200    1.1770 ha        1 CZH      0.131500
     51 H29        -6.7190    2.4250    2.1190 ha        1 CZH      0.131500
     52 H30        -7.7850    0.3690    3.0510 ha        1 CZH      0.131000
     53 H31        -6.5380   -1.7930    3.0400 ha        1 CZH      0.131500
     54 H32        -4.2340   -1.9010    2.1000 ha        1 CZH      0.131500
     55 H34         0.8830    2.7690   -0.6060 ho        1 CZH      0.412000
@<TRIPOS>BOND
     1    1    2 1   
     2    1    9 2   
     3    2    3 1   
     4    2   10 1   
     5    2   33 1   
     6    3    4 1   
     7    3   18 2   
     8    4    5 1   
     9    4    9 1   
    10    5    6 2   
    11    5   35 1   
    12    6    7 1   
    13    6   19 1   
    14    7    8 2   
    15    8    9 1   
    16    8   26 1   
    17   10   11 1   
    18   10   36 1   
    19   10   37 1   
    20   11   12 ar  
    21   11   16 ar  
    22   12   13 ar  
    23   12   38 1   
    24   13   14 ar  
    25   13   39 1   
    26   14   15 ar  
    27   14   17 1   
    28   15   16 ar  
    29   15   40 1   
    30   16   41 1   
    31   17   42 1   
    32   19   20 ar  
    33   19   24 ar  
    34   20   21 ar  
    35   20   43 1   
    36   21   22 ar  
    37   21   44 1   
    38   22   23 ar  
    39   22   25 1   
    40   23   24 ar  
    41   23   45 1   
    42   24   46 1   
    43   25   47 1   
    44   26   27 1   
    45   26   48 1   
    46   26   49 1   
    47   27   28 ar  
    48   27   32 ar  
    49   28   29 ar  
    50   28   50 1   
    51   29   30 ar  
    52   29   51 1   
    53   30   31 ar  
    54   30   52 1   
    55   31   32 ar  
    56   31   53 1   
    57   32   54 1   
    58   33   34 1   
    59   34   55 1   
@<TRIPOS>SUBSTRUCTURE
     1 CZH         1 TEMP              0 ****  ****    0 ROOT
