@<TRIPOS>MOLECULE
CZI
   56    60     1     0     0
SMALL
bcc


@<TRIPOS>ATOM
      1 I           6.4340   -1.4480    0.5000 i         1 CZI     -0.145900
      2 C14         4.8050   -0.2680    0.6940 ca        1 CZI      0.024900
      3 C15         4.6140    0.8100   -0.1720 ca        1 CZI     -0.097000
      4 C16         3.4920    1.6250   -0.0380 ca        1 CZI     -0.120000
      5 C13         3.8670   -0.5280    1.6920 ca        1 CZI     -0.097000
      6 C12         2.7420    0.2850    1.8260 ca        1 CZI     -0.120000
      7 C11         2.5460    1.3680    0.9620 ca        1 CZI     -0.055300
      8 C10         1.3670    2.2570    1.1290 c3        1 CZI     -0.013100
      9 C2          0.3790    2.2030   -0.0450 c3        1 CZI      0.219000
     10 O33         0.9890    3.0160   -1.0860 os        1 CZI     -0.174800
     11 O34         0.3100    3.0830   -2.1740 oh        1 CZI     -0.384000
     12 N1          0.0120    0.8360   -0.5020 n2        1 CZI     -0.623900
     13 C9         -1.2870    0.6980   -0.3250 c2        1 CZI      0.465900
     14 N4         -1.9460    1.8260    0.2540 n         1 CZI     -0.338500
     15 C3         -0.9890    2.8620    0.4060 c         1 CZI      0.666500
     16 O18        -1.1960    3.9850    0.8520 o         1 CZI     -0.538500
     17 C5         -3.3380    1.8980    0.2560 c2        1 CZI     -0.087400
     18 C8         -2.1100   -0.5440   -0.6460 c3        1 CZI      0.172200
     19 C26        -1.8360   -1.5800    0.4650 c3        1 CZI     -0.070100
     20 C27        -2.4820   -2.8840    0.1570 ca        1 CZI     -0.097300
     21 C28        -1.8340   -3.8100   -0.6700 ca        1 CZI     -0.127000
     22 C29        -2.4330   -5.0360   -0.9550 ca        1 CZI     -0.125500
     23 C30        -3.6830   -5.3460   -0.4170 ca        1 CZI     -0.125000
     24 C31        -4.3310   -4.4280    0.4080 ca        1 CZI     -0.125500
     25 C32        -3.7340   -3.2010    0.6950 ca        1 CZI     -0.127000
     26 N7         -3.5170   -0.2500   -0.8860 nh        1 CZI     -0.705000
     27 C6         -4.0930    0.8610   -0.2240 ce        1 CZI      0.079800
     28 C19        -5.5590    0.9330   -0.1430 ca        1 CZI     -0.093800
     29 C20        -6.1640    1.4210    1.0230 ca        1 CZI     -0.077500
     30 C21        -7.5500    1.5080    1.1170 ca        1 CZI     -0.187000
     31 C24        -6.3600    0.5310   -1.2230 ca        1 CZI     -0.077500
     32 C23        -7.7450    0.6100   -1.1440 ca        1 CZI     -0.187000
     33 C22        -8.3380    1.1010    0.0310 ca        1 CZI      0.133100
     34 O25        -9.7120    1.1510    0.0500 oh        1 CZI     -0.494100
     35 H15         5.3470    1.0270   -0.9650 ha        1 CZI      0.144000
     36 H16         3.3360    2.4720   -0.7250 ha        1 CZI      0.142000
     37 H13         4.0040   -1.3760    2.3810 ha        1 CZI      0.144000
     38 H12         2.0080    0.0700    2.6170 ha        1 CZI      0.142000
     39 H101        1.7090    3.3260    1.2210 hc        1 CZI      0.079200
     40 H102        0.8050    1.9930    2.0640 hc        1 CZI      0.079200
     41 H34         0.6370    2.3780   -2.7820 ho        1 CZI      0.410000
     42 H5         -3.7660    2.8270    0.6660 h4        1 CZI      0.182000
     43 H8         -1.7250   -0.9720   -1.6250 h1        1 CZI      0.100700
     44 H261       -0.7250   -1.7180    0.5480 hc        1 CZI      0.070700
     45 H262       -2.2050   -1.1870    1.4490 hc        1 CZI      0.070700
     46 H28        -0.8470   -3.5680   -1.0920 ha        1 CZI      0.135500
     47 H29        -1.9180   -5.7590   -1.6040 ha        1 CZI      0.135500
     48 H30        -4.1540   -6.3140   -0.6420 ha        1 CZI      0.135000
     49 H31        -5.3150   -4.6710    0.8360 ha        1 CZI      0.135500
     50 H32        -4.2460   -2.4840    1.3540 ha        1 CZI      0.135500
     51 HN7        -4.0760   -1.0790   -0.7920 hn        1 CZI      0.408800
     52 H20        -5.5410    1.7380    1.8730 ha        1 CZI      0.144500
     53 H21        -8.0210    1.8940    2.0320 ha        1 CZI      0.146500
     54 H24        -5.8920    0.1620   -2.1490 ha        1 CZI      0.144500
     55 H23        -8.3820    0.3010   -1.9850 ha        1 CZI      0.146500
     56 H25        -9.9870    1.5250    0.9000 ho        1 CZI      0.422000
@<TRIPOS>BOND
     1    1    2 1   
     2    2    3 ar  
     3    2    5 ar  
     4    3    4 ar  
     5    3   35 1   
     6    4    7 ar  
     7    4   36 1   
     8    5    6 ar  
     9    5   37 1   
    10    6    7 ar  
    11    6   38 1   
    12    7    8 1   
    13    8    9 1   
    14    8   39 1   
    15    8   40 1   
    16    9   10 1   
    17    9   12 1   
    18    9   15 1   
    19   10   11 1   
    20   11   41 1   
    21   12   13 2   
    22   13   14 1   
    23   13   18 1   
    24   14   15 1   
    25   14   17 1   
    26   15   16 2   
    27   17   27 2   
    28   17   42 1   
    29   18   19 1   
    30   18   26 1   
    31   18   43 1   
    32   19   20 1   
    33   19   44 1   
    34   19   45 1   
    35   20   21 ar  
    36   20   25 ar  
    37   21   22 ar  
    38   21   46 1   
    39   22   23 ar  
    40   22   47 1   
    41   23   24 ar  
    42   23   48 1   
    43   24   25 ar  
    44   24   49 1   
    45   25   50 1   
    46   26   27 1   
    47   26   51 1   
    48   27   28 1   
    49   28   29 ar  
    50   28   31 ar  
    51   29   30 ar  
    52   29   52 1   
    53   30   33 ar  
    54   30   53 1   
    55   31   32 ar  
    56   31   54 1   
    57   32   33 ar  
    58   32   55 1   
    59   33   34 1   
    60   34   56 1   
@<TRIPOS>SUBSTRUCTURE
     1 CZI         1 TEMP              0 ****  ****    0 ROOT
