@<TRIPOS>MOLECULE
CZI
   56    60     1     0     0
SMALL
bcc


@<TRIPOS>ATOM
      1 I           0.2330    0.3240   -0.8650 i         1 CZI     -0.145900
      2 C14         2.2210    0.1850   -0.5320 ca        1 CZI      0.024900
      3 C15         2.6970   -0.4940    0.5910 ca        1 CZI     -0.097000
      4 C16         4.0670   -0.5890    0.8220 ca        1 CZI     -0.120000
      5 C13         3.1220    0.7670   -1.4230 ca        1 CZI     -0.097000
      6 C12         4.4940    0.6710   -1.1940 ca        1 CZI     -0.120000
      7 C11         4.9770   -0.0080   -0.0700 ca        1 CZI     -0.055300
      8 C10         6.4380   -0.0780    0.1950 c3        1 CZI     -0.013100
      9 C2          7.0160   -1.4980    0.1110 c3        1 CZI      0.219000
     10 O33         6.6420   -2.1290    1.3660 os        1 CZI     -0.174800
     11 O34         7.0270   -3.3480    1.4830 oh        1 CZI     -0.384000
     12 N1          6.6080   -2.2790   -1.0880 n2        1 CZI     -0.623900
     13 C9          7.7020   -2.5550   -1.7680 c2        1 CZI      0.465900
     14 N4          8.9120   -2.0320   -1.2140 n         1 CZI     -0.338500
     15 C3          8.5940   -1.4030    0.0170 c         1 CZI      0.666500
     16 O18         9.3830   -0.8600    0.7810 o         1 CZI     -0.538500
     17 C5         10.1460   -2.4660   -1.6960 c2        1 CZI     -0.087400
     18 C8          7.7740   -3.3350   -3.0760 c3        1 CZI      0.172200
     19 C26         7.2990   -2.3920   -4.2020 c3        1 CZI     -0.070100
     20 C27         7.1920   -3.1130   -5.4980 ca        1 CZI     -0.097300
     21 C28         6.0320   -3.8340   -5.8070 ca        1 CZI     -0.127000
     22 C29         5.9260   -4.5050   -7.0240 ca        1 CZI     -0.125500
     23 C30         6.9750   -4.4600   -7.9420 ca        1 CZI     -0.125000
     24 C31         8.1320   -3.7410   -7.6410 ca        1 CZI     -0.125500
     25 C32         8.2410   -3.0700   -6.4240 ca        1 CZI     -0.127000
     26 N7          9.0720   -3.9600   -3.2970 nu        1 CZI     -0.705000
     27 C6         10.2190   -3.3370   -2.7520 ce        1 CZI      0.079800
     28 C19        11.5340   -3.7200   -3.2850 ca        1 CZI     -0.093800
     29 C20        12.5280   -2.7450   -3.4420 ca        1 CZI     -0.077500
     30 C21        13.7840   -3.0890   -3.9350 ca        1 CZI     -0.187000
     31 C24        11.8110   -5.0520   -3.6260 ca        1 CZI     -0.077500
     32 C23        13.0580   -5.4120   -4.1210 ca        1 CZI     -0.187000
     33 C22        14.0460   -4.4230   -4.2760 ca        1 CZI      0.133100
     34 O25        15.2580   -4.8400   -4.7730 oh        1 CZI     -0.494100
     35 H15         1.9960   -0.9590    1.3020 ha        1 CZI      0.144000
     36 H16         4.4450   -1.1310    1.7040 ha        1 CZI      0.142000
     37 H13         2.7600    1.3050   -2.3130 ha        1 CZI      0.144000
     38 H12         5.1970    1.1330   -1.9040 ha        1 CZI      0.142000
     39 H101        7.0000    0.5660   -0.5340 hc        1 CZI      0.079200
     40 H102        6.6540    0.3040    1.2320 hc        1 CZI      0.079200
     41 H34         6.2930   -3.9320    1.1780 ho        1 CZI      0.410000
     42 H5         11.0290   -2.0610   -1.1760 h4        1 CZI      0.182000
     43 H8          7.0380   -4.1960   -3.0070 h1        1 CZI      0.100700
     44 H261        8.0070   -1.5270   -4.2970 hc        1 CZI      0.070700
     45 H262        6.2940   -1.9810   -3.9130 hc        1 CZI      0.070700
     46 H28         5.2020   -3.8680   -5.0850 ha        1 CZI      0.135500
     47 H29         5.0110   -5.0690   -7.2610 ha        1 CZI      0.135500
     48 H30         6.8900   -4.9890   -8.9030 ha        1 CZI      0.135000
     49 H31         8.9600   -3.7020   -8.3640 ha        1 CZI      0.135500
     50 H32         9.1520   -2.4960   -6.1950 ha        1 CZI      0.135500
     51 HN7         9.1940   -4.1960   -4.2670 hn        1 CZI      0.408800
     52 H20        12.3170   -1.6980   -3.1760 ha        1 CZI      0.144500
     53 H21        14.5620   -2.3220   -4.0560 ha        1 CZI      0.146500
     54 H24        11.0410   -5.8280   -3.4900 ha        1 CZI      0.144500
     55 H23        13.2870   -6.4530   -4.3890 ha        1 CZI      0.146500
     56 H25        15.8470   -4.0720   -4.8070 ho        1 CZI      0.422000
@<TRIPOS>BOND
     1    1    2 1   
     2    2    3 ar  
     3    2    5 ar  
     4    3    4 ar  
     5    3   35 1   
     6    4    7 ar  
     7    4   36 1   
     8    5    6 ar  
     9    5   37 1   
    10    6    7 ar  
    11    6   38 1   
    12    7    8 1   
    13    8    9 1   
    14    8   39 1   
    15    8   40 1   
    16    9   10 1   
    17    9   12 1   
    18    9   15 1   
    19   10   11 1   
    20   11   41 1   
    21   12   13 2   
    22   13   14 1   
    23   13   18 1   
    24   14   15 1   
    25   14   17 1   
    26   15   16 2   
    27   17   27 2   
    28   17   42 1   
    29   18   19 1   
    30   18   26 1   
    31   18   43 1   
    32   19   20 1   
    33   19   44 1   
    34   19   45 1   
    35   20   21 ar  
    36   20   25 ar  
    37   21   22 ar  
    38   21   46 1   
    39   22   23 ar  
    40   22   47 1   
    41   23   24 ar  
    42   23   48 1   
    43   24   25 ar  
    44   24   49 1   
    45   25   50 1   
    46   26   27 1   
    47   26   51 1   
    48   27   28 1   
    49   28   29 ar  
    50   28   31 ar  
    51   29   30 ar  
    52   29   52 1   
    53   30   33 ar  
    54   30   53 1   
    55   31   32 ar  
    56   31   54 1   
    57   32   33 ar  
    58   32   55 1   
    59   33   34 1   
    60   34   56 1   
@<TRIPOS>SUBSTRUCTURE
     1 CZI         1 TEMP              0 ****  ****    0 ROOT
