@<TRIPOS>MOLECULE
CZI
   56    60     1     0     0
SMALL
bcc


@<TRIPOS>ATOM
      1 I           0.5940    1.2270   -1.2000 i         1 CZI     -0.146900
      2 C14         2.4970    0.7560   -0.7110 ca        1 CZI      0.024900
      3 C15         2.7560   -0.0590    0.3920 ca        1 CZI     -0.098000
      4 C16         4.0680   -0.3830    0.7300 ca        1 CZI     -0.119000
      5 C13         3.5570    1.2440   -1.4750 ca        1 CZI     -0.098000
      6 C12         4.8710    0.9200   -1.1390 ca        1 CZI     -0.119000
      7 C11         5.1360    0.1050   -0.0330 ca        1 CZI     -0.055300
      8 C10         6.5370   -0.2120    0.3500 c3        1 CZI     -0.013100
      9 C2          6.9230   -1.6790    0.1150 c3        1 CZI      0.221000
     10 O33         6.2880   -2.4120    1.2000 os        1 CZI     -0.174800
     11 O34         6.4450   -3.6850    1.1460 oh        1 CZI     -0.385000
     12 N1          6.5960   -2.2070   -1.2370 n2        1 CZI     -0.628900
     13 C9          7.7280   -2.5780   -1.8010 c2        1 CZI      0.471900
     14 N4          8.8920   -2.3880   -0.9940 n         1 CZI     -0.344500
     15 C3          8.4950   -1.8230    0.2400 c         1 CZI      0.670500
     16 O18         9.2310   -1.5050    1.1680 o         1 CZI     -0.543500
     17 C5         10.1570   -2.6980   -1.4870 c2        1 CZI     -0.083400
     18 C8          7.9010   -3.2320   -3.1700 c3        1 CZI      0.184200
     19 C26         6.8230   -2.7250   -4.1460 c3        1 CZI     -0.034100
     20 C27         6.8850   -3.4540   -5.4430 ca        1 CZI     -0.098300
     21 C28         6.1310   -4.6190   -5.6320 ca        1 CZI     -0.126500
     22 C29         6.1770   -5.2950   -6.8510 ca        1 CZI     -0.130000
     23 C30         6.9730   -4.8120   -7.8890 ca        1 CZI     -0.127000
     24 C31         7.7240   -3.6510   -7.7070 ca        1 CZI     -0.130000
     25 C32         7.6810   -2.9740   -6.4890 ca        1 CZI     -0.126500
     26 N7          9.2410   -3.0190   -3.7080 nh        1 CZI     -0.725000
     27 C6         10.3180   -3.0640   -2.7990 ce        1 CZI      0.086800
     28 C19        11.6530   -3.4130   -3.3030 ca        1 CZI     -0.086800
     29 C20        12.7550   -2.6140   -2.9650 ca        1 CZI     -0.079000
     30 C21        14.0290   -2.9330   -3.4180 ca        1 CZI     -0.183500
     31 C24        11.8400   -4.5430   -4.1090 ca        1 CZI     -0.079000
     32 C23        13.1090   -4.8770   -4.5730 ca        1 CZI     -0.183500
     33 C22        14.2020   -4.0700   -4.2260 ca        1 CZI      0.133100
     34 O25        15.4840   -4.3340   -4.6470 oh        1 CZI     -0.493100
     35 H15         1.9280   -0.4520    1.0030 ha        1 CZI      0.143500
     36 H16         4.2730   -1.0330    1.5950 ha        1 CZI      0.142000
     37 H13         3.3670    1.8870   -2.3490 ha        1 CZI      0.143500
     38 H12         5.7000    1.3080   -1.7490 ha        1 CZI      0.142000
     39 H101        7.2560    0.4300   -0.2270 hc        1 CZI      0.079700
     40 H102        6.6880   -0.0040    1.4450 hc        1 CZI      0.079700
     41 H34         5.6640   -4.0690    0.6810 ho        1 CZI      0.409000
     42 H5         10.9830   -2.6390   -0.7610 h4        1 CZI      0.182000
     43 H8          7.7100   -4.3390   -2.9900 h1        1 CZI      0.054700
     44 H261        6.9530   -1.6230   -4.3150 hc        1 CZI      0.077700
     45 H262        5.8170   -2.8820   -3.6720 hc        1 CZI      0.077700
     46 H28         5.4960   -4.9980   -4.8170 ha        1 CZI      0.138500
     47 H29         5.5800   -6.2080   -6.9930 ha        1 CZI      0.134500
     48 H30         7.0060   -5.3440   -8.8510 ha        1 CZI      0.134000
     49 H31         8.3490   -3.2650   -8.5260 ha        1 CZI      0.134500
     50 H32         8.2700   -2.0540   -6.3490 ha        1 CZI      0.138500
     51 HN7         9.3900   -3.5320   -4.5540 hn        1 CZI      0.415800
     52 H20        12.6070   -1.7210   -2.3370 ha        1 CZI      0.139000
     53 H21        14.8990   -2.3130   -3.1590 ha        1 CZI      0.146500
     54 H24        10.9860   -5.1860   -4.3730 ha        1 CZI      0.139000
     55 H23        13.2530   -5.7660   -5.2030 ha        1 CZI      0.146500
     56 H25        15.4630   -5.1380   -5.1860 ho        1 CZI      0.421000
@<TRIPOS>BOND
     1    1    2 1   
     2    2    3 ar  
     3    2    5 ar  
     4    3    4 ar  
     5    3   35 1   
     6    4    7 ar  
     7    4   36 1   
     8    5    6 ar  
     9    5   37 1   
    10    6    7 ar  
    11    6   38 1   
    12    7    8 1   
    13    8    9 1   
    14    8   39 1   
    15    8   40 1   
    16    9   10 1   
    17    9   12 1   
    18    9   15 1   
    19   10   11 1   
    20   11   41 1   
    21   12   13 2   
    22   13   14 1   
    23   13   18 1   
    24   14   15 1   
    25   14   17 1   
    26   15   16 2   
    27   17   27 2   
    28   17   42 1   
    29   18   19 1   
    30   18   26 1   
    31   18   43 1   
    32   19   20 1   
    33   19   44 1   
    34   19   45 1   
    35   20   21 ar  
    36   20   25 ar  
    37   21   22 ar  
    38   21   46 1   
    39   22   23 ar  
    40   22   47 1   
    41   23   24 ar  
    42   23   48 1   
    43   24   25 ar  
    44   24   49 1   
    45   25   50 1   
    46   26   27 1   
    47   26   51 1   
    48   27   28 1   
    49   28   29 ar  
    50   28   31 ar  
    51   29   30 ar  
    52   29   52 1   
    53   30   33 ar  
    54   30   53 1   
    55   31   32 ar  
    56   31   54 1   
    57   32   33 ar  
    58   32   55 1   
    59   33   34 1   
    60   34   56 1   
@<TRIPOS>SUBSTRUCTURE
     1 CZI         1 TEMP              0 ****  ****    0 ROOT
