@<TRIPOS>MOLECULE
CZI
   56    60     1     0     0
SMALL
bcc


@<TRIPOS>ATOM
      1 I           0.6050    1.2510   -1.2020 i         1 CZI     -0.146900
      2 C14         2.5090    0.7800   -0.7160 ca        1 CZI      0.024900
      3 C15         2.7680   -0.0290    0.3920 ca        1 CZI     -0.098000
      4 C16         4.0810   -0.3520    0.7280 ca        1 CZI     -0.119000
      5 C13         3.5670    1.2610   -1.4860 ca        1 CZI     -0.098000
      6 C12         4.8810    0.9380   -1.1500 ca        1 CZI     -0.119000
      7 C11         5.1480    0.1290   -0.0400 ca        1 CZI     -0.055300
      8 C10         6.5500   -0.1880    0.3410 c3        1 CZI     -0.013100
      9 C2          6.9330   -1.6580    0.1150 c3        1 CZI      0.221000
     10 O33         6.2990   -2.3810    1.2070 os        1 CZI     -0.174800
     11 O34         6.4540   -3.6550    1.1610 oh        1 CZI     -0.385000
     12 N1          6.6000   -2.1950   -1.2320 n2        1 CZI     -0.628900
     13 C9          7.7300   -2.5710   -1.7970 c2        1 CZI      0.471900
     14 N4          8.8970   -2.3770   -0.9940 n         1 CZI     -0.344500
     15 C3          8.5040   -1.8030    0.2360 c         1 CZI      0.670500
     16 O18         9.2430   -1.4810    1.1610 o         1 CZI     -0.543500
     17 C5         10.1600   -2.6940   -1.4880 c2        1 CZI     -0.083400
     18 C8          7.8990   -3.2340   -3.1620 c3        1 CZI      0.184200
     19 C26         6.8190   -2.7310   -4.1390 c3        1 CZI     -0.034100
     20 C27         6.8760   -3.4690   -5.4310 ca        1 CZI     -0.098300
     21 C28         6.1190   -4.6330   -5.6120 ca        1 CZI     -0.126500
     22 C29         6.1600   -5.3160   -6.8260 ca        1 CZI     -0.130000
     23 C30         6.9560   -4.8430   -7.8690 ca        1 CZI     -0.127000
     24 C31         7.7100   -3.6830   -7.6960 ca        1 CZI     -0.130000
     25 C32         7.6720   -2.9970   -6.4820 ca        1 CZI     -0.126500
     26 N7          9.2380   -3.0290   -3.7050 nh        1 CZI     -0.725000
     27 C6         10.3170   -3.0700   -2.7980 ce        1 CZI      0.086800
     28 C19        11.6490   -3.4260   -3.3020 ca        1 CZI     -0.086800
     29 C20        12.7550   -2.6260   -2.9740 ca        1 CZI     -0.079000
     30 C21        14.0260   -2.9520   -3.4280 ca        1 CZI     -0.183500
     31 C24        11.8320   -4.5620   -4.1010 ca        1 CZI     -0.079000
     32 C23        13.0990   -4.9030   -4.5650 ca        1 CZI     -0.183500
     33 C22        14.1950   -4.0960   -4.2280 ca        1 CZI      0.133100
     34 O25        15.4750   -4.3660   -4.6490 oh        1 CZI     -0.493100
     35 H15         1.9420   -0.4160    1.0080 ha        1 CZI      0.143500
     36 H16         4.2880   -0.9970    1.5970 ha        1 CZI      0.142000
     37 H13         3.3760    1.8990   -2.3630 ha        1 CZI      0.143500
     38 H12         5.7090    1.3200   -1.7660 ha        1 CZI      0.142000
     39 H101        6.7040    0.0270    1.4350 hc        1 CZI      0.079700
     40 H102        7.2680    0.4480   -0.2420 hc        1 CZI      0.079700
     41 H34         5.6710   -4.0410    0.7010 ho        1 CZI      0.409000
     42 H5         10.9880   -2.6320   -0.7640 h4        1 CZI      0.182000
     43 H8          7.7050   -4.3400   -2.9740 h1        1 CZI      0.054700
     44 H261        6.9520   -1.6310   -4.3150 hc        1 CZI      0.077700
     45 H262        5.8140   -2.8830   -3.6610 hc        1 CZI      0.077700
     46 H28         5.4850   -5.0050   -4.7930 ha        1 CZI      0.138500
     47 H29         5.5600   -6.2290   -6.9610 ha        1 CZI      0.134500
     48 H30         6.9840   -5.3810   -8.8280 ha        1 CZI      0.134000
     49 H31         8.3340   -3.3040   -8.5180 ha        1 CZI      0.134500
     50 H32         8.2640   -2.0790   -6.3490 ha        1 CZI      0.138500
     51 HN7         9.3840   -3.5490   -4.5470 hn        1 CZI      0.415800
     52 H20        12.6110   -1.7280   -2.3530 ha        1 CZI      0.139000
     53 H21        14.8990   -2.3330   -3.1760 ha        1 CZI      0.146500
     54 H24        10.9760   -5.2060   -4.3570 ha        1 CZI      0.139000
     55 H23        13.2390   -5.7970   -5.1890 ha        1 CZI      0.146500
     56 H25        15.4510   -5.1750   -5.1820 ho        1 CZI      0.421000
@<TRIPOS>BOND
     1    1    2 1   
     2    2    3 ar  
     3    2    5 ar  
     4    3    4 ar  
     5    3   35 1   
     6    4    7 ar  
     7    4   36 1   
     8    5    6 ar  
     9    5   37 1   
    10    6    7 ar  
    11    6   38 1   
    12    7    8 1   
    13    8    9 1   
    14    8   39 1   
    15    8   40 1   
    16    9   10 1   
    17    9   12 1   
    18    9   15 1   
    19   10   11 1   
    20   11   41 1   
    21   12   13 2   
    22   13   14 1   
    23   13   18 1   
    24   14   15 1   
    25   14   17 1   
    26   15   16 2   
    27   17   27 2   
    28   17   42 1   
    29   18   19 1   
    30   18   26 1   
    31   18   43 1   
    32   19   20 1   
    33   19   44 1   
    34   19   45 1   
    35   20   21 ar  
    36   20   25 ar  
    37   21   22 ar  
    38   21   46 1   
    39   22   23 ar  
    40   22   47 1   
    41   23   24 ar  
    42   23   48 1   
    43   24   25 ar  
    44   24   49 1   
    45   25   50 1   
    46   26   27 1   
    47   26   51 1   
    48   27   28 1   
    49   28   29 ar  
    50   28   31 ar  
    51   29   30 ar  
    52   29   52 1   
    53   30   33 ar  
    54   30   53 1   
    55   31   32 ar  
    56   31   54 1   
    57   32   33 ar  
    58   32   55 1   
    59   33   34 1   
    60   34   56 1   
@<TRIPOS>SUBSTRUCTURE
     1 CZI         1 TEMP              0 ****  ****    0 ROOT
