@<TRIPOS>MOLECULE
CZI
   56    53     1     0     0
SMALL
bcc


@<TRIPOS>ATOM
      1 I          -5.7970    4.8530    6.0730 i         1 CZI      0.138000
      2 C14        -4.5980    4.1500    4.4890 c2        1 CZI     -0.262000
      3 C15        -3.2220    4.3260    4.5300 c2        1 CZI     -0.096000
      4 C16        -2.4280    3.8270    3.5090 c1        1 CZI     -0.105000
      5 C13        -5.1800    3.4740    3.4260 c1        1 CZI     -0.100000
      6 C12        -4.3850    2.9740    2.4030 c1        1 CZI     -0.132000
      7 C11        -3.0100    3.1500    2.4440 c1        1 CZI     -0.053000
      8 C10        -2.1270    2.5490    1.3440 c3        1 CZI     -0.097000
      9 C2         -1.5140    1.2520    1.8400 c3        1 CZI      0.071000
     10 O33        -2.2640    1.1140    2.9730 os        1 CZI     -0.103000
     11 O34        -1.5030    0.2680    3.8990 oh        1 CZI     -0.182000
     12 N1         -1.5790    0.1890    0.9520 n2        1 CZI     -0.175000
     13 C9         -0.4060   -0.3780    0.6400 c1        1 CZI      0.087000
     14 N4          0.6990    0.1810    1.2360 n2        1 CZI     -0.258000
     15 C3          0.1560    1.2930    2.0810 c2        1 CZI      0.257000
     16 O18         0.7310    1.8350    3.0010 o         1 CZI     -0.285000
     17 C5          1.9410   -0.4130    1.0280 c2        1 CZI     -0.098000
     18 C8         -0.2350   -1.1280   -0.7210 c3        1 CZI      0.052000
     19 C26         0.1270   -0.1950   -1.7700 c3        1 CZI     -0.156000
     20 C27        -0.3900   -0.7170   -3.1200 c2        1 CZI     -0.090000
     21 C28        -1.6510   -1.2930   -3.2030 c2        1 CZI     -0.119000
     22 C29        -2.1680   -1.6610   -4.4400 c1        1 CZI     -0.125000
     23 C30        -1.4240   -1.4530   -5.5920 c1        1 CZI     -0.126000
     24 C31        -0.1630   -0.8770   -5.5100 c1        1 CZI     -0.126000
     25 C32         0.3540   -0.5090   -4.2730 c1        1 CZI     -0.134000
     26 N7          0.8000   -2.0770   -0.3710 n3        1 CZI     -0.261000
     27 C6          2.0000   -1.5990    0.1910 c2        1 CZI     -0.005000
     28 C19         3.3580   -2.1230   -0.3190 c2        1 CZI     -0.085000
     29 C20         4.3400   -1.2290   -0.7210 c2        1 CZI     -0.084000
     30 C21         5.5850   -1.6980   -1.1230 c1        1 CZI     -0.158000
     31 C24         3.6200   -3.4860   -0.3190 c1        1 CZI     -0.069000
     32 C23         4.8640   -3.9540   -0.7220 c1        1 CZI     -0.216000
     33 C22         5.8460   -3.0600   -1.1230 c1        1 CZI      0.089000
     34 O25         7.0660   -3.5400   -1.6340 oh        1 CZI     -0.248000
     35 H15        -2.8120    4.8030    5.2800 ha        1 CZI      0.146000
     36 H16        -1.4600    3.9510    3.5380 ha        1 CZI      0.160000
     37 H13        -6.1490    3.3500    3.3970 ha        1 CZI      0.142000
     38 H12        -4.7930    2.4990    1.6560 ha        1 CZI      0.133000
     39 H101       -2.6710    2.3700    0.5510 hc        1 CZI      0.117000
     40 H102       -1.4140    3.1820    1.1160 hc        1 CZI      0.117000
     41 H34        -1.9470    0.1960    4.6680 ho        1 CZI      0.206000
     42 H5          2.6940   -0.1860    1.6070 h4        1 CZI      0.180000
     43 H8         -1.0160   -1.5650   -1.1060 h1        1 CZI      0.144000
     44 H261       -0.2720    0.6770   -1.5830 hc        1 CZI      0.111500
     45 H262        1.1010   -0.1070   -1.8060 hc        1 CZI      0.111500
     46 H28        -2.1740   -1.4390   -2.3930 ha        1 CZI      0.139000
     47 H29        -3.0580   -2.0670   -4.4980 ha        1 CZI      0.136000
     48 H30        -1.7880   -1.7120   -6.4630 ha        1 CZI      0.135000
     49 H31         0.3600   -0.7310   -6.3220 ha        1 CZI      0.135000
     50 H32         1.2360   -0.1060   -4.2160 ha        1 CZI      0.133000
     51 HN7         0.7480   -2.9380   -0.6680 hn        1 CZI      0.205000
     52 H20         4.1560   -0.2700   -0.7200 ha        1 CZI      0.141000
     53 H21         6.2750   -1.0690   -1.4050 ha        1 CZI      0.155000
     54 H24         2.9300   -4.1140   -0.0370 ha        1 CZI      0.149000
     55 H23         5.0480   -4.9130   -0.7220 ha        1 CZI      0.138000
     56 H25         7.5620   -3.8580   -0.9680 ho        1 CZI      0.221000
@<TRIPOS>BOND
     1    1    2 1   
     2    2    3 1   
     3    2    5 1   
     4    3    4 1   
     5    3   35 1   
     6    4   36 1   
     7    5   37 1   
     8    6    7 1   
     9    6   38 1   
    10    7    8 1   
    11    8    9 1   
    12    8   39 1   
    13    8   40 1   
    14    9   10 1   
    15    9   12 1   
    16    9   15 1   
    17   10   11 1   
    18   11   41 1   
    19   12   13 1   
    20   13   18 1   
    21   14   15 1   
    22   14   17 1   
    23   15   16 1   
    24   17   27 1   
    25   17   42 1   
    26   18   19 1   
    27   18   26 1   
    28   18   43 1   
    29   19   20 1   
    30   19   44 1   
    31   19   45 1   
    32   20   21 1   
    33   20   25 1   
    34   21   22 1   
    35   21   46 1   
    36   22   47 1   
    37   23   24 1   
    38   23   48 1   
    39   24   49 1   
    40   25   50 1   
    41   26   27 1   
    42   26   51 1   
    43   27   28 1   
    44   28   29 1   
    45   28   31 1   
    46   29   30 1   
    47   29   52 1   
    48   30   53 1   
    49   31   54 1   
    50   32   33 1   
    51   32   55 1   
    52   33   34 1   
    53   34   56 1   
@<TRIPOS>SUBSTRUCTURE
     1 CZI         1 TEMP              0 ****  ****    0 ROOT
