@<TRIPOS>MOLECULE
CZM
   46    48     1     0     0
SMALL
bcc


@<TRIPOS>ATOM
      1 OA         -0.0090    0.3960    0.3360 oh        1 CZM     -0.497100
      2 CA2         1.3130    0.0840    0.2000 ca        1 CZM      0.195100
      3 CA3         2.0300    0.0420    1.4280 ca        1 CZM     -0.117300
      4 CA4         3.3850   -0.2640    1.4110 ca        1 CZM     -0.080000
      5 CA5         4.0430   -0.5270    0.2040 ca        1 CZM     -0.175000
      6 CA6         3.3440   -0.4850   -0.9890 ca        1 CZM     -0.077000
      7 CA1         1.9680   -0.1820   -1.0180 ca        1 CZM     -0.250900
      8 CA          1.3280   -0.1660   -2.3350 ce        1 CZM      0.517800
      9 NA          0.0620    0.0220   -2.5140 nf        1 CZM     -0.614100
     10 CC1        -0.5180    0.0080   -3.7970 ca        1 CZM      0.156400
     11 CC6        -0.1140   -0.9100   -4.7900 ca        1 CZM     -0.151000
     12 CC5        -0.7460   -0.9650   -6.0270 ca        1 CZM     -0.122000
     13 CC4        -1.7960   -0.0950   -6.3110 ca        1 CZM     -0.122000
     14 CC3        -2.2120    0.8280   -5.3590 ca        1 CZM     -0.151000
     15 CC2        -1.5990    0.9030   -4.0910 ca        1 CZM      0.156400
     16 NB         -2.0600    1.7810   -3.0890 ne        1 CZM     -0.614100
     17 CB         -2.4650    2.9770   -3.3640 cf        1 CZM      0.517800
     18 CB1        -2.9730    3.9120   -2.3580 ca        1 CZM     -0.250900
     19 CB6        -3.4560    5.1480   -2.8340 ca        1 CZM     -0.077000
     20 CB5        -3.9590    6.1020   -1.9660 ca        1 CZM     -0.175000
     21 CB4        -3.9930    5.8480   -0.5900 ca        1 CZM     -0.080000
     22 CB3        -3.5240    4.6450   -0.0780 ca        1 CZM     -0.117300
     23 CB2        -3.0090    3.6650   -0.9720 ca        1 CZM      0.195100
     24 OB         -2.5760    2.5230   -0.3600 oh        1 CZM     -0.497100
     25 CB7        -3.5500    4.3570    1.3730 c3        1 CZM     -0.042800
     26 CA7         1.3160    0.3250    2.6930 c3        1 CZM     -0.042800
     27 HOA        -0.4390    0.4320   -0.5360 ho        1 CZM      0.462000
     28 HA4         3.9470   -0.2990    2.3570 ha        1 CZM      0.136000
     29 HA5         5.1160   -0.7670    0.2090 ha        1 CZM      0.135000
     30 HA6         3.8680   -0.6920   -1.9360 ha        1 CZM      0.130000
     31 HA          2.0420   -0.3300   -3.1770 h4        1 CZM     -0.021200
     32 HC6         0.7070   -1.6120   -4.5770 ha        1 CZM      0.136000
     33 HC5        -0.4170   -1.6980   -6.7780 ha        1 CZM      0.136000
     34 HC4        -2.3000   -0.1380   -7.2880 ha        1 CZM      0.136000
     35 HC3        -3.0510    1.5010   -5.5970 ha        1 CZM      0.136000
     36 HB         -2.4570    3.3970   -4.3970 h4        1 CZM     -0.021200
     37 HB6        -3.4310    5.3530   -3.9150 ha        1 CZM      0.130000
     38 HB5        -4.3330    7.0600   -2.3530 ha        1 CZM      0.135000
     39 HB4        -4.3940    6.6110    0.0950 ha        1 CZM      0.136000
     40 HOB        -2.2150    1.9040   -1.0180 ho        1 CZM      0.462000
     41 HB71       -3.9570    5.2210    1.9520 hc        1 CZM      0.048700
     42 HB72       -4.1820    3.4560    1.5730 hc        1 CZM      0.048700
     43 HB73       -2.5150    4.1310    1.7360 hc        1 CZM      0.048700
     44 HA71        0.8500    1.3420    2.6490 hc        1 CZM      0.048700
     45 HA72        2.0060    0.2800    3.5700 hc        1 CZM      0.048700
     46 HA73        0.4920   -0.4180    2.8410 hc        1 CZM      0.048700
@<TRIPOS>BOND
     1    1    2 1   
     2    1   27 1   
     3    2    3 ar  
     4    2    7 ar  
     5    3    4 ar  
     6    3   26 1   
     7    4    5 ar  
     8    4   28 1   
     9    5    6 ar  
    10    5   29 1   
    11    6    7 ar  
    12    6   30 1   
    13    7    8 1   
    14    8    9 2   
    15    8   31 1   
    16    9   10 1   
    17   10   11 ar  
    18   10   15 ar  
    19   11   12 ar  
    20   11   32 1   
    21   12   13 ar  
    22   12   33 1   
    23   13   14 ar  
    24   13   34 1   
    25   14   15 ar  
    26   14   35 1   
    27   15   16 1   
    28   16   17 2   
    29   17   18 1   
    30   17   36 1   
    31   18   19 ar  
    32   18   23 ar  
    33   19   20 ar  
    34   19   37 1   
    35   20   21 ar  
    36   20   38 1   
    37   21   22 ar  
    38   21   39 1   
    39   22   23 ar  
    40   22   25 1   
    41   23   24 1   
    42   24   40 1   
    43   25   41 1   
    44   25   42 1   
    45   25   43 1   
    46   26   44 1   
    47   26   45 1   
    48   26   46 1   
@<TRIPOS>SUBSTRUCTURE
     1 CZM         1 TEMP              0 ****  ****    0 ROOT
