@<TRIPOS>MOLECULE
CZM
   46    48     1     0     0
SMALL
bcc


@<TRIPOS>ATOM
      1 OA         -0.0130    0.3870    0.3350 oh        1 CZM     -0.497100
      2 CA2         1.3110    0.0820    0.2010 ca        1 CZM      0.195100
      3 CA3         2.0260    0.0380    1.4300 ca        1 CZM     -0.117300
      4 CA4         3.3810   -0.2610    1.4150 ca        1 CZM     -0.080000
      5 CA5         4.0440   -0.5160    0.2090 ca        1 CZM     -0.175000
      6 CA6         3.3480   -0.4730   -0.9870 ca        1 CZM     -0.077000
      7 CA1         1.9700   -0.1760   -1.0170 ca        1 CZM     -0.250900
      8 CA          1.3330   -0.1580   -2.3360 ce        1 CZM      0.517800
      9 NA          0.0670    0.0260   -2.5160 nf        1 CZM     -0.614100
     10 CC1        -0.5110    0.0140   -3.8010 ca        1 CZM      0.156400
     11 CC6        -0.1030   -0.9000   -4.7960 ca        1 CZM     -0.151000
     12 CC5        -0.7320   -0.9540   -6.0330 ca        1 CZM     -0.122000
     13 CC4        -1.7840   -0.0860   -6.3180 ca        1 CZM     -0.122000
     14 CC3        -2.2030    0.8340   -5.3640 ca        1 CZM     -0.151000
     15 CC2        -1.5930    0.9080   -4.0950 ca        1 CZM      0.156400
     16 NB         -2.0580    1.7820   -3.0920 ne        1 CZM     -0.614100
     17 CB         -2.4650    2.9770   -3.3650 cf        1 CZM      0.517800
     18 CB1        -2.9770    3.9090   -2.3570 ca        1 CZM     -0.250900
     19 CB6        -3.4620    5.1450   -2.8300 ca        1 CZM     -0.077000
     20 CB5        -3.9680    6.0960   -1.9610 ca        1 CZM     -0.175000
     21 CB4        -4.0020    5.8390   -0.5850 ca        1 CZM     -0.080000
     22 CB3        -3.5300    4.6360   -0.0760 ca        1 CZM     -0.117300
     23 CB2        -3.0120    3.6600   -0.9710 ca        1 CZM      0.195100
     24 OB         -2.5760    2.5180   -0.3610 oh        1 CZM     -0.497100
     25 CB7        -3.5550    4.3460    1.3750 c3        1 CZM     -0.042800
     26 CA7         1.3070    0.3130    2.6950 c3        1 CZM     -0.042800
     27 HOA        -0.4410    0.4250   -0.5380 ho        1 CZM      0.462000
     28 HA4         3.9420   -0.2970    2.3620 ha        1 CZM      0.136000
     29 HA5         5.1180   -0.7500    0.2150 ha        1 CZM      0.135000
     30 HA6         3.8740   -0.6730   -1.9330 ha        1 CZM      0.130000
     31 HA          2.0490   -0.3160   -3.1770 h4        1 CZM     -0.021200
     32 HC6         0.7200   -1.6010   -4.5830 ha        1 CZM      0.136000
     33 HC5        -0.4000   -1.6840   -6.7860 ha        1 CZM      0.136000
     34 HC4        -2.2860   -0.1270   -7.2960 ha        1 CZM      0.136000
     35 HC3        -3.0430    1.5060   -5.6020 ha        1 CZM      0.136000
     36 HB         -2.4570    3.4010   -4.3970 h4        1 CZM     -0.021200
     37 HB6        -3.4370    5.3520   -3.9120 ha        1 CZM      0.130000
     38 HB5        -4.3450    7.0540   -2.3460 ha        1 CZM      0.135000
     39 HB4        -4.4050    6.6000    0.1010 ha        1 CZM      0.136000
     40 HOB        -2.2130    1.9010   -1.0200 ho        1 CZM      0.462000
     41 HB71       -3.9650    5.2070    1.9560 hc        1 CZM      0.048700
     42 HB72       -4.1860    3.4420    1.5730 hc        1 CZM      0.048700
     43 HB73       -2.5200    4.1220    1.7380 hc        1 CZM      0.048700
     44 HA71        0.4870   -0.4350    2.8370 hc        1 CZM      0.048700
     45 HA72        1.9960    0.2670    3.5730 hc        1 CZM      0.048700
     46 HA73        0.8360    1.3270    2.6540 hc        1 CZM      0.048700
@<TRIPOS>BOND
     1    1    2 1   
     2    1   27 1   
     3    2    3 ar  
     4    2    7 ar  
     5    3    4 ar  
     6    3   26 1   
     7    4    5 ar  
     8    4   28 1   
     9    5    6 ar  
    10    5   29 1   
    11    6    7 ar  
    12    6   30 1   
    13    7    8 1   
    14    8    9 2   
    15    8   31 1   
    16    9   10 1   
    17   10   11 ar  
    18   10   15 ar  
    19   11   12 ar  
    20   11   32 1   
    21   12   13 ar  
    22   12   33 1   
    23   13   14 ar  
    24   13   34 1   
    25   14   15 ar  
    26   14   35 1   
    27   15   16 1   
    28   16   17 2   
    29   17   18 1   
    30   17   36 1   
    31   18   19 ar  
    32   18   23 ar  
    33   19   20 ar  
    34   19   37 1   
    35   20   21 ar  
    36   20   38 1   
    37   21   22 ar  
    38   21   39 1   
    39   22   23 ar  
    40   22   25 1   
    41   23   24 1   
    42   24   40 1   
    43   25   41 1   
    44   25   42 1   
    45   25   43 1   
    46   26   44 1   
    47   26   45 1   
    48   26   46 1   
@<TRIPOS>SUBSTRUCTURE
     1 CZM         1 TEMP              0 ****  ****    0 ROOT
