@<TRIPOS>MOLECULE
CZM
   46    48     1     0     0
SMALL
bcc


@<TRIPOS>ATOM
      1 OA         -0.0110    0.3950    0.3360 oh        1 CZM     -0.497100
      2 CA2         1.3110    0.0800    0.2000 ca        1 CZM      0.195100
      3 CA3         2.0280    0.0370    1.4280 ca        1 CZM     -0.117300
      4 CA4         3.3810   -0.2730    1.4100 ca        1 CZM     -0.080000
      5 CA5         4.0390   -0.5380    0.2030 ca        1 CZM     -0.175000
      6 CA6         3.3400   -0.4940   -0.9900 ca        1 CZM     -0.077000
      7 CA1         1.9640   -0.1880   -1.0180 ca        1 CZM     -0.250900
      8 CA          1.3250   -0.1710   -2.3360 ce        1 CZM      0.517800
      9 NA          0.0590    0.0200   -2.5140 nf        1 CZM     -0.614100
     10 CC1        -0.5220    0.0070   -3.7980 ca        1 CZM      0.156400
     11 CC6        -0.1200   -0.9110   -4.7910 ca        1 CZM     -0.151000
     12 CC5        -0.7530   -0.9650   -6.0270 ca        1 CZM     -0.122000
     13 CC4        -1.8010   -0.0930   -6.3110 ca        1 CZM     -0.122000
     14 CC3        -2.2140    0.8310   -5.3590 ca        1 CZM     -0.151000
     15 CC2        -1.6010    0.9050   -4.0900 ca        1 CZM      0.156400
     16 NB         -2.0600    1.7830   -3.0890 ne        1 CZM     -0.614100
     17 CB         -2.4630    2.9800   -3.3640 cf        1 CZM      0.517800
     18 CB1        -2.9690    3.9160   -2.3570 ca        1 CZM     -0.250900
     19 CB6        -3.4480    5.1530   -2.8330 ca        1 CZM     -0.077000
     20 CB5        -3.9490    6.1080   -1.9650 ca        1 CZM     -0.175000
     21 CB4        -3.9830    5.8540   -0.5890 ca        1 CZM     -0.080000
     22 CB3        -3.5180    4.6500   -0.0780 ca        1 CZM     -0.117300
     23 CB2        -3.0050    3.6690   -0.9710 ca        1 CZM      0.195100
     24 OB         -2.5750    2.5270   -0.3600 oh        1 CZM     -0.497100
     25 CB7        -3.5450    4.3620    1.3740 c3        1 CZM     -0.042800
     26 CA7         1.3140    0.3220    2.6930 c3        1 CZM     -0.042800
     27 HOA        -0.4410    0.4320   -0.5360 ho        1 CZM      0.462000
     28 HA4         3.9440   -0.3090    2.3560 ha        1 CZM      0.136000
     29 HA5         5.1120   -0.7800    0.2080 ha        1 CZM      0.135000
     30 HA6         3.8630   -0.7020   -1.9370 ha        1 CZM      0.130000
     31 HA          2.0380   -0.3350   -3.1780 h4        1 CZM     -0.021200
     32 HC6         0.7000   -1.6150   -4.5780 ha        1 CZM      0.136000
     33 HC5        -0.4250   -1.6990   -6.7780 ha        1 CZM      0.136000
     34 HC4        -2.3050   -0.1350   -7.2880 ha        1 CZM      0.136000
     35 HC3        -3.0520    1.5060   -5.5960 ha        1 CZM      0.136000
     36 HB         -2.4540    3.4010   -4.3970 h4        1 CZM     -0.021200
     37 HB6        -3.4220    5.3590   -3.9140 ha        1 CZM      0.130000
     38 HB5        -4.3210    7.0680   -2.3520 ha        1 CZM      0.135000
     39 HB4        -4.3830    6.6180    0.0960 ha        1 CZM      0.136000
     40 HOB        -2.2150    1.9070   -1.0170 ho        1 CZM      0.462000
     41 HB71       -3.9500    5.2270    1.9530 hc        1 CZM      0.048700
     42 HB72       -4.1790    3.4620    1.5730 hc        1 CZM      0.048700
     43 HB73       -2.5100    4.1340    1.7370 hc        1 CZM      0.048700
     44 HA71        0.8510    1.3400    2.6490 hc        1 CZM      0.048700
     45 HA72        2.0040    0.2740    3.5690 hc        1 CZM      0.048700
     46 HA73        0.4880   -0.4200    2.8400 hc        1 CZM      0.048700
@<TRIPOS>BOND
     1    1    2 1   
     2    1   27 1   
     3    2    3 ar  
     4    2    7 ar  
     5    3    4 ar  
     6    3   26 1   
     7    4    5 ar  
     8    4   28 1   
     9    5    6 ar  
    10    5   29 1   
    11    6    7 ar  
    12    6   30 1   
    13    7    8 1   
    14    8    9 2   
    15    8   31 1   
    16    9   10 1   
    17   10   11 ar  
    18   10   15 ar  
    19   11   12 ar  
    20   11   32 1   
    21   12   13 ar  
    22   12   33 1   
    23   13   14 ar  
    24   13   34 1   
    25   14   15 ar  
    26   14   35 1   
    27   15   16 1   
    28   16   17 2   
    29   17   18 1   
    30   17   36 1   
    31   18   19 ar  
    32   18   23 ar  
    33   19   20 ar  
    34   19   37 1   
    35   20   21 ar  
    36   20   38 1   
    37   21   22 ar  
    38   21   39 1   
    39   22   23 ar  
    40   22   25 1   
    41   23   24 1   
    42   24   40 1   
    43   25   41 1   
    44   25   42 1   
    45   25   43 1   
    46   26   44 1   
    47   26   45 1   
    48   26   46 1   
@<TRIPOS>SUBSTRUCTURE
     1 CZM         1 TEMP              0 ****  ****    0 ROOT
