@<TRIPOS>MOLECULE
CZM
   46    40     1     0     0
SMALL
bcc


@<TRIPOS>ATOM
      1 OA         -1.0690   -1.8620    2.8470 oh        1 CZM     -0.255000
      2 CA2         0.3720   -2.0540    2.8430 c2        1 CZM      0.111000
      3 CA3         1.0690   -2.1030    4.0490 c2        1 CZM     -0.162000
      4 CA4         2.4310   -2.3910    4.0560 c1        1 CZM     -0.074000
      5 CA5         3.0970   -2.6300    2.8630 c1        1 CZM     -0.127000
      6 CA6         2.4010   -2.5830    1.6520 c1        1 CZM     -0.127000
      7 CA1         1.0400   -2.2950    1.6430 c1        1 CZM     -0.131000
      8 CA          0.2570   -2.4040    0.3490 c2        1 CZM      0.037000
      9 NA          0.1680   -1.4110   -0.4200 n1        1 CZM     -0.162000
     10 CC1         0.8010   -0.1760   -0.0760 c1        1 CZM     -0.010000
     11 CC6         2.1960   -0.0430   -0.1920 c2        1 CZM     -0.139000
     12 CC5         2.8070    1.1890    0.0870 c1        1 CZM     -0.136000
     13 CC4         2.0360    2.2710    0.4760 c1        1 CZM     -0.127000
     14 CC3         0.6430    2.1340    0.5900 c1        1 CZM     -0.127000
     15 CC2         0.0330    0.8980    0.3100 c1        1 CZM     -0.010000
     16 NB         -1.3340    0.7130    0.5720 n2        1 CZM     -0.162000
     17 CB         -2.2390    0.9520   -0.3850 c1        1 CZM      0.037000
     18 CB1        -1.7800    1.4380   -1.7800 c1        1 CZM     -0.131000
     19 CB6        -0.7630    2.3820   -1.8810 c2        1 CZM     -0.065000
     20 CB5        -0.4420    2.9340   -3.1190 c1        1 CZM     -0.168000
     21 CB4        -1.1430    2.5410   -4.2700 c1        1 CZM     -0.074000
     22 CB3        -2.1590    1.6000   -4.1790 c1        1 CZM     -0.162000
     23 CB2        -2.4860    1.0400   -2.9340 c1        1 CZM      0.111000
     24 OB         -3.5960    0.1240   -2.8210 oh        1 CZM     -0.255000
     25 CB7        -2.9240    1.2330   -5.3780 c3        1 CZM     -0.180000
     26 CA7         0.3150   -1.9740    5.3700 c3        1 CZM     -0.180000
     27 HOA        -1.4750   -2.6410    3.0230 ho        1 CZM      0.224000
     28 HA4         2.9350   -2.4250    4.9310 ha        1 CZM      0.133000
     29 HA5         4.0590   -2.8340    2.8690 ha        1 CZM      0.140250
     30 HA6         2.8520   -2.7450    0.8430 ha        1 CZM      0.140250
     31 HA         -0.1880   -3.2630    0.1050 h4        1 CZM      0.163000
     32 HC6         2.7520   -0.8250   -0.4730 ha        1 CZM      0.139000
     33 HC5         3.8010    1.2850    0.0040 ha        1 CZM      0.132000
     34 HC4         2.4420    3.0910    0.6620 ha        1 CZM      0.140250
     35 HC3         0.0990    2.8940    0.8630 ha        1 CZM      0.140250
     36 HB         -3.1730    0.8240   -0.2050 ha        1 CZM      0.163000
     37 HB6        -0.2430    2.6750   -1.0340 ha        1 CZM      0.152000
     38 HB5         0.2770    3.6010   -3.1860 ha        1 CZM      0.138000
     39 HB4        -0.9040    2.9500   -5.1760 ha        1 CZM      0.133000
     40 HOB        -4.1580    0.2420   -3.5170 ho        1 CZM      0.224000
     41 HB71       -2.9520    0.2780   -5.4600 hc        1 CZM      0.084333
     42 HB72       -2.4810    1.6250   -6.1880 hc        1 CZM      0.084333
     43 HB73       -3.8200    1.5760   -5.3060 hc        1 CZM      0.084333
     44 HA71       -0.0920   -2.8560    5.6090 hc        1 CZM      0.084333
     45 HA72       -0.4130   -1.2830    5.2740 hc        1 CZM      0.084333
     46 HA73        0.9520   -1.6920    6.0950 hc        1 CZM      0.084333
@<TRIPOS>BOND
     1    1    2 1   
     2    1   27 1   
     3    2    3 1   
     4    2    7 1   
     5    3    4 1   
     6    3   26 1   
     7    4   28 1   
     8    5    6 1   
     9    5   29 1   
    10    6   30 1   
    11    7    8 1   
    12    8    9 1   
    13    8   31 1   
    14   10   11 1   
    15   10   15 1   
    16   11   12 1   
    17   11   32 1   
    18   12   33 1   
    19   13   14 1   
    20   13   34 1   
    21   14   35 1   
    22   15   16 1   
    23   16   17 1   
    24   17   36 1   
    25   18   19 1   
    26   18   23 1   
    27   19   20 1   
    28   19   37 1   
    29   20   38 1   
    30   21   22 1   
    31   21   39 1   
    32   22   25 1   
    33   23   24 1   
    34   24   40 1   
    35   25   41 1   
    36   25   42 1   
    37   25   43 1   
    38   26   44 1   
    39   26   45 1   
    40   26   46 1   
@<TRIPOS>SUBSTRUCTURE
     1 CZM         1 TEMP              0 ****  ****    0 ROOT
