@<TRIPOS>MOLECULE
CZM
   46    48     1     0     0
SMALL
bcc


@<TRIPOS>ATOM
      1 OA          1.7020    1.4480    1.0310 oh        1 CZM     -0.497100
      2 CA2         2.8700    1.3080    0.3370 ca        1 CZM      0.195100
      3 CA3         3.6920    2.4700    0.3410 ca        1 CZM     -0.117300
      4 CA4         4.9040    2.4430   -0.3350 ca        1 CZM     -0.080000
      5 CA5         5.3180    1.2920   -1.0170 ca        1 CZM     -0.175000
      6 CA6         4.5160    0.1640   -1.0200 ca        1 CZM     -0.077000
      7 CA1         3.2800    0.1460   -0.3440 ca        1 CZM     -0.250900
      8 CA          2.5140   -1.1000   -0.4130 ce        1 CZM      0.517800
      9 NA          1.4020   -1.2920    0.2150 nf        1 CZM     -0.614100
     10 CC1         0.7060   -2.5150    0.1410 ca        1 CZM      0.156400
     11 CC6         1.3760   -3.7570    0.1410 ca        1 CZM     -0.151000
     12 CC5         0.6760   -4.9580    0.1440 ca        1 CZM     -0.122000
     13 CC4        -0.7160   -4.9530    0.1360 ca        1 CZM     -0.122000
     14 CC3        -1.4060   -3.7470    0.1250 ca        1 CZM     -0.151000
     15 CC2        -0.7270   -2.5100    0.1330 ca        1 CZM      0.156400
     16 NB         -1.4140   -1.2820    0.2000 ne        1 CZM     -0.614100
     17 CB         -2.5180   -1.0810   -0.4410 cf        1 CZM      0.517800
     18 CB1        -3.2750    0.1720   -0.3810 ca        1 CZM     -0.250900
     19 CB6        -4.5030    0.1990   -1.0710 ca        1 CZM     -0.077000
     20 CB5        -5.2970    1.3330   -1.0770 ca        1 CZM     -0.175000
     21 CB4        -4.8820    2.4800   -0.3900 ca        1 CZM     -0.080000
     22 CB3        -3.6770    2.4980    0.3000 ca        1 CZM     -0.117300
     23 CB2        -2.8640    1.3300    0.3050 ca        1 CZM      0.195100
     24 OB         -1.7030    1.4610    1.0130 oh        1 CZM     -0.497100
     25 CB7        -3.2200    3.7010    1.0310 c3        1 CZM     -0.042800
     26 CA7         3.2360    3.6760    1.0660 c3        1 CZM     -0.042800
     27 HOA         1.1750    0.6330    0.9730 ho        1 CZM      0.462000
     28 HA4         5.5470    3.3370   -0.3360 ha        1 CZM      0.136000
     29 HA5         6.2810    1.2890   -1.5480 ha        1 CZM      0.135000
     30 HA6         4.8470   -0.7380   -1.5590 ha        1 CZM      0.130000
     31 HA          2.9830   -1.8740   -1.0670 h4        1 CZM     -0.021200
     32 HC6         2.4770   -3.7790    0.1580 ha        1 CZM      0.136000
     33 HC5         1.2260   -5.9110    0.1550 ha        1 CZM      0.136000
     34 HC4        -1.2730   -5.9020    0.1410 ha        1 CZM      0.136000
     35 HC3        -2.5080   -3.7600    0.1300 ha        1 CZM      0.136000
     36 HB         -2.9850   -1.8510   -1.1000 h4        1 CZM     -0.021200
     37 HB6        -4.8340   -0.7010   -1.6140 ha        1 CZM      0.130000
     38 HB5        -6.2530    1.3380   -1.6190 ha        1 CZM      0.135000
     39 HB4        -5.5180    3.3790   -0.3980 ha        1 CZM      0.136000
     40 HOB        -1.1820    0.6420    0.9600 ho        1 CZM      0.462000
     41 HB71       -3.1010    3.4640    2.1180 hc        1 CZM      0.048700
     42 HB72       -2.2210    4.0260    0.6440 hc        1 CZM      0.048700
     43 HB73       -3.9430    4.5440    0.9200 hc        1 CZM      0.048700
     44 HA71        2.2440    4.0090    0.6670 hc        1 CZM      0.048700
     45 HA72        3.1020    3.4410    2.1520 hc        1 CZM      0.048700
     46 HA73        3.9670    4.5140    0.9640 hc        1 CZM      0.048700
@<TRIPOS>BOND
     1    1    2 1   
     2    1   27 1   
     3    2    3 ar  
     4    2    7 ar  
     5    3    4 ar  
     6    3   26 1   
     7    4    5 ar  
     8    4   28 1   
     9    5    6 ar  
    10    5   29 1   
    11    6    7 ar  
    12    6   30 1   
    13    7    8 1   
    14    8    9 2   
    15    8   31 1   
    16    9   10 1   
    17   10   11 ar  
    18   10   15 ar  
    19   11   12 ar  
    20   11   32 1   
    21   12   13 ar  
    22   12   33 1   
    23   13   14 ar  
    24   13   34 1   
    25   14   15 ar  
    26   14   35 1   
    27   15   16 1   
    28   16   17 2   
    29   17   18 1   
    30   17   36 1   
    31   18   19 ar  
    32   18   23 ar  
    33   19   20 ar  
    34   19   37 1   
    35   20   21 ar  
    36   20   38 1   
    37   21   22 ar  
    38   21   39 1   
    39   22   23 ar  
    40   22   25 1   
    41   23   24 1   
    42   24   40 1   
    43   25   41 1   
    44   25   42 1   
    45   25   43 1   
    46   26   44 1   
    47   26   45 1   
    48   26   46 1   
@<TRIPOS>SUBSTRUCTURE
     1 CZM         1 TEMP              0 ****  ****    0 ROOT
