@<TRIPOS>MOLECULE
CZN
   62    67     1     0     0
SMALL
bcc


@<TRIPOS>ATOM
      1 O21        -0.1880    0.1750    0.0860 o         1 CZN     -0.559500
      2 C3          1.0150   -0.0720    0.0250 c         1 CZN      0.645500
      3 N4          1.8870   -0.2930    1.1120 n         1 CZN     -0.344500
      4 C5          1.7300    0.0320    2.4570 c2        1 CZN     -0.080400
      5 C9          3.1990   -0.5470    0.5820 c2        1 CZN      0.425900
      6 C8          4.3130   -0.8390    1.5850 c3        1 CZN      0.177200
      7 N7          4.1360   -0.1720    2.8680 nu        1 CZN     -0.718000
      8 C6          2.8150    0.1230    3.2880 ce        1 CZN      0.080800
      9 C22         2.6250    0.5150    4.6920 ca        1 CZN     -0.088800
     10 C23         1.7030    1.5200    5.0130 ca        1 CZN     -0.073500
     11 C24         1.4980    1.8950    6.3370 ca        1 CZN     -0.189000
     12 C25         2.2280    1.2590    7.3510 ca        1 CZN      0.134100
     13 C26         3.1590    0.2520    7.0440 ca        1 CZN     -0.189000
     14 C27         3.3500   -0.1120    5.7170 ca        1 CZN     -0.073500
     15 O28         2.0830    1.5760    8.6810 oh        1 CZN     -0.494100
     16 C29         4.3890   -2.3770    1.7530 c3        1 CZN     -0.030100
     17 C30         5.1830   -3.0030    0.6610 ca        1 CZN     -0.097300
     18 C31         6.5760   -3.0900    0.7750 ca        1 CZN     -0.113500
     19 C32         7.3270   -3.7010   -0.2270 ca        1 CZN     -0.129500
     20 C33         6.6920   -4.2320   -1.3510 ca        1 CZN     -0.125000
     21 C34         5.3060   -4.1470   -1.4700 ca        1 CZN     -0.129500
     22 C35         4.5510   -3.5350   -0.4690 ca        1 CZN     -0.113500
     23 N1          3.2820   -0.5440   -0.7290 n2        1 CZN     -0.569900
     24 C2          1.9200   -0.2660   -1.2620 c3        1 CZN      0.218000
     25 O36         1.3750   -1.3640   -2.0480 os        1 CZN     -0.173800
     26 O37         1.2620   -2.4660   -1.3950 oh        1 CZN     -0.389000
     27 C10         1.8100    0.9650   -2.1710 c3        1 CZN     -0.007100
     28 C11         2.9760    1.1770   -3.0680 ca        1 CZN     -0.071300
     29 C12         3.5530    2.4230   -3.1780 ca        1 CZN     -0.115000
     30 C13         4.6360    2.6460   -4.0690 ca        1 CZN     -0.038000
     31 C14         5.2420    3.9260   -4.2000 ca        1 CZN     -0.118000
     32 C18         5.1270    1.5660   -4.8480 ca        1 CZN     -0.032000
     33 C19         4.5200    0.2880   -4.7130 ca        1 CZN     -0.118000
     34 C20         3.4720    0.0980   -3.8480 ca        1 CZN     -0.100000
     35 C17         6.2120    1.7920   -5.7380 ca        1 CZN     -0.117000
     36 C16         6.7790    3.0380   -5.8460 ca        1 CZN     -0.128000
     37 C15         6.2890    4.1150   -5.0690 ca        1 CZN     -0.130000
     38 H5          0.6890    0.1730    2.7930 h4        1 CZN      0.179000
     39 H8          5.2930   -0.4880    1.1370 h1        1 CZN      0.096700
     40 HN7         4.7370    0.6230    2.9720 hn        1 CZN      0.400800
     41 H23         1.1360    2.0210    4.2130 ha        1 CZN      0.144500
     42 H24         0.7720    2.6830    6.5850 ha        1 CZN      0.145500
     43 H26         3.7190   -0.2340    7.8550 ha        1 CZN      0.145500
     44 H27         4.0740   -0.9060    5.4720 ha        1 CZN      0.144500
     45 H28         1.4130    2.2710    8.7530 ho        1 CZN      0.421000
     46 H291        4.8710   -2.6140    2.7410 hc        1 CZN      0.066700
     47 H292        3.3530   -2.8040    1.7780 hc        1 CZN      0.066700
     48 H31         7.0780   -2.6760    1.6610 ha        1 CZN      0.136500
     49 H32         8.4200   -3.7650   -0.1310 ha        1 CZN      0.131500
     50 H33         7.2850   -4.7140   -2.1410 ha        1 CZN      0.130000
     51 H34         4.8020   -4.5580   -2.3570 ha        1 CZN      0.131500
     52 H35         3.4570   -3.4570   -0.5790 ha        1 CZN      0.136500
     53 H37         0.3400   -2.5140   -1.0460 ho        1 CZN      0.407000
     54 H101        0.8830    0.8350   -2.7970 hc        1 CZN      0.075200
     55 H102        1.6540    1.8630   -1.5140 hc        1 CZN      0.075200
     56 H12         3.1850    3.2710   -2.5790 ha        1 CZN      0.128000
     57 H14         4.8550    4.7570   -3.5930 ha        1 CZN      0.130000
     58 H19         4.9100   -0.5470   -5.3140 ha        1 CZN      0.134000
     59 H20         3.0060   -0.8950   -3.7290 ha        1 CZN      0.153000
     60 H17         6.5850    0.9470   -6.3370 ha        1 CZN      0.132000
     61 H16         7.6180    3.2150   -6.5340 ha        1 CZN      0.131000
     62 H15         6.7590    5.1040   -5.1720 ha        1 CZN      0.131000
@<TRIPOS>BOND
     1    1    2 2   
     2    2    3 1   
     3    2   24 1   
     4    3    4 1   
     5    3    5 1   
     6    4    8 2   
     7    4   38 1   
     8    5    6 1   
     9    5   23 2   
    10    6    7 1   
    11    6   16 1   
    12    6   39 1   
    13    7    8 1   
    14    7   40 1   
    15    8    9 1   
    16    9   10 ar  
    17    9   14 ar  
    18   10   11 ar  
    19   10   41 1   
    20   11   12 ar  
    21   11   42 1   
    22   12   13 ar  
    23   12   15 1   
    24   13   14 ar  
    25   13   43 1   
    26   14   44 1   
    27   15   45 1   
    28   16   17 1   
    29   16   46 1   
    30   16   47 1   
    31   17   18 ar  
    32   17   22 ar  
    33   18   19 ar  
    34   18   48 1   
    35   19   20 ar  
    36   19   49 1   
    37   20   21 ar  
    38   20   50 1   
    39   21   22 ar  
    40   21   51 1   
    41   22   52 1   
    42   23   24 1   
    43   24   25 1   
    44   24   27 1   
    45   25   26 1   
    46   26   53 1   
    47   27   28 1   
    48   27   54 1   
    49   27   55 1   
    50   28   29 ar  
    51   28   34 ar  
    52   29   30 ar  
    53   29   56 1   
    54   30   31 ar  
    55   30   32 ar  
    56   31   37 ar  
    57   31   57 1   
    58   32   33 ar  
    59   32   35 ar  
    60   33   34 ar  
    61   33   58 1   
    62   34   59 1   
    63   35   36 ar  
    64   35   60 1   
    65   36   37 ar  
    66   36   61 1   
    67   37   62 1   
@<TRIPOS>SUBSTRUCTURE
     1 CZN         1 TEMP              0 ****  ****    0 ROOT
