@<TRIPOS>MOLECULE
CZN
   62    67     1     0     0
SMALL
bcc


@<TRIPOS>ATOM
      1 O21        -0.2200    0.0970    0.0290 o         1 CZN     -0.558500
      2 C3          0.9880   -0.1280   -0.0150 c         1 CZN      0.646500
      3 N4          1.8520   -0.3240    1.0820 n         1 CZN     -0.344500
      4 C5          1.6740    0.0090    2.4230 c2        1 CZN     -0.077400
      5 C9          3.1740   -0.5600    0.5690 c2        1 CZN      0.425900
      6 C8          4.2820   -0.8240    1.5870 c3        1 CZN      0.176200
      7 N7          4.0800   -0.1470    2.8610 nh        1 CZN     -0.717000
      8 C6          2.7480    0.1250    3.2650 ce        1 CZN      0.078800
      9 C22         2.5370    0.5210    4.6640 ca        1 CZN     -0.088800
     10 C23         1.5940    1.5160    4.9690 ca        1 CZN     -0.073000
     11 C24         1.3650    1.8980    6.2850 ca        1 CZN     -0.189000
     12 C25         2.0930    1.2760    7.3130 ca        1 CZN      0.134100
     13 C26         3.0390    0.2830    7.0230 ca        1 CZN     -0.189000
     14 C27         3.2560   -0.0890    5.7000 ca        1 CZN     -0.073000
     15 O28         1.8240    1.6960    8.5950 oh        1 CZN     -0.494100
     16 C29         4.3810   -2.3590    1.7700 c3        1 CZN     -0.030100
     17 C30         5.1960   -2.9820    0.6930 ca        1 CZN     -0.097300
     18 C31         6.5890   -3.0450    0.8220 ca        1 CZN     -0.113500
     19 C32         7.3600   -3.6540   -0.1660 ca        1 CZN     -0.129500
     20 C33         6.7470   -4.2050   -1.2910 ca        1 CZN     -0.125000
     21 C34         5.3600   -4.1440   -1.4260 ca        1 CZN     -0.129500
     22 C35         4.5850   -3.5350   -0.4390 ca        1 CZN     -0.113500
     23 N1          3.2710   -0.5680   -0.7410 n2        1 CZN     -0.569900
     24 C2          1.9110   -0.3170   -1.2910 c3        1 CZN      0.218000
     25 O36         1.3930   -1.4320   -2.0740 os        1 CZN     -0.173800
     26 O37         1.2890   -2.5280   -1.4110 oh        1 CZN     -0.389000
     27 C10         1.7890    0.9040   -2.2120 c3        1 CZN     -0.007100
     28 C11         2.9610    1.1270   -3.0990 ca        1 CZN     -0.071300
     29 C12         3.5190    2.3810   -3.2120 ca        1 CZN     -0.115000
     30 C13         4.6080    2.6140   -4.0950 ca        1 CZN     -0.038000
     31 C14         5.1950    3.9030   -4.2290 ca        1 CZN     -0.118000
     32 C18         5.1240    1.5370   -4.8590 ca        1 CZN     -0.032000
     33 C19         4.5360    0.2500   -4.7210 ca        1 CZN     -0.119000
     34 C20         3.4820    0.0500   -3.8650 ca        1 CZN     -0.100000
     35 C17         6.2140    1.7720   -5.7410 ca        1 CZN     -0.117000
     36 C16         6.7620    3.0270   -5.8520 ca        1 CZN     -0.128000
     37 C15         6.2480    4.1030   -5.0880 ca        1 CZN     -0.130000
     38 H5          0.6280    0.1350    2.7470 h4        1 CZN      0.180000
     39 H8          5.2600   -0.4620    1.1460 h1        1 CZN      0.096700
     40 HN7         4.6600    0.6630    2.9580 hn        1 CZN      0.399800
     41 H23         1.0320    2.0040    4.1570 ha        1 CZN      0.144500
     42 H24         0.6290    2.6750    6.5330 ha        1 CZN      0.145500
     43 H26         3.6030   -0.1990    7.8340 ha        1 CZN      0.145500
     44 H27         3.9940   -0.8740    5.4710 ha        1 CZN      0.144500
     45 H28         2.3850    1.1890    9.2000 ho        1 CZN      0.421000
     46 H291        3.3510   -2.8030    1.7880 hc        1 CZN      0.066700
     47 H292        4.8560   -2.5790    2.7650 hc        1 CZN      0.066700
     48 H31         7.0750   -2.6140    1.7100 ha        1 CZN      0.136500
     49 H32         8.4540   -3.6990   -0.0580 ha        1 CZN      0.131500
     50 H33         7.3560   -4.6850   -2.0710 ha        1 CZN      0.130000
     51 H34         4.8730   -4.5710   -2.3140 ha        1 CZN      0.131500
     52 H35         3.4910   -3.4750   -0.5610 ha        1 CZN      0.136500
     53 H37         0.3630   -2.5880   -1.0730 ho        1 CZN      0.407000
     54 H101        0.8710    0.7530   -2.8460 hc        1 CZN      0.075200
     55 H102        1.6120    1.8040   -1.5640 hc        1 CZN      0.075200
     56 H12         3.1320    3.2280   -2.6240 ha        1 CZN      0.128000
     57 H14         4.7890    4.7330   -3.6330 ha        1 CZN      0.130000
     58 H19         4.9450   -0.5840   -5.3110 ha        1 CZN      0.134000
     59 H20         3.0310   -0.9490   -3.7430 ha        1 CZN      0.153000
     60 H17         6.6070    0.9300   -6.3290 ha        1 CZN      0.132000
     61 H16         7.6060    3.2120   -6.5330 ha        1 CZN      0.131000
     62 H15         6.7030    5.0980   -5.1950 ha        1 CZN      0.131000
@<TRIPOS>BOND
     1    1    2 2   
     2    2    3 1   
     3    2   24 1   
     4    3    4 1   
     5    3    5 1   
     6    4    8 2   
     7    4   38 1   
     8    5    6 1   
     9    5   23 2   
    10    6    7 1   
    11    6   16 1   
    12    6   39 1   
    13    7    8 1   
    14    7   40 1   
    15    8    9 1   
    16    9   10 ar  
    17    9   14 ar  
    18   10   11 ar  
    19   10   41 1   
    20   11   12 ar  
    21   11   42 1   
    22   12   13 ar  
    23   12   15 1   
    24   13   14 ar  
    25   13   43 1   
    26   14   44 1   
    27   15   45 1   
    28   16   17 1   
    29   16   46 1   
    30   16   47 1   
    31   17   18 ar  
    32   17   22 ar  
    33   18   19 ar  
    34   18   48 1   
    35   19   20 ar  
    36   19   49 1   
    37   20   21 ar  
    38   20   50 1   
    39   21   22 ar  
    40   21   51 1   
    41   22   52 1   
    42   23   24 1   
    43   24   25 1   
    44   24   27 1   
    45   25   26 1   
    46   26   53 1   
    47   27   28 1   
    48   27   54 1   
    49   27   55 1   
    50   28   29 ar  
    51   28   34 ar  
    52   29   30 ar  
    53   29   56 1   
    54   30   31 ar  
    55   30   32 ar  
    56   31   37 ar  
    57   31   57 1   
    58   32   33 ar  
    59   32   35 ar  
    60   33   34 ar  
    61   33   58 1   
    62   34   59 1   
    63   35   36 ar  
    64   35   60 1   
    65   36   37 ar  
    66   36   61 1   
    67   37   62 1   
@<TRIPOS>SUBSTRUCTURE
     1 CZN         1 TEMP              0 ****  ****    0 ROOT
