@<TRIPOS>MOLECULE
CZN
   62    67     1     0     0
SMALL
bcc


@<TRIPOS>ATOM
      1 O21        -0.8440    2.9530   -2.0120 o         1 CZN     -0.540500
      2 C3         -0.5070    1.8950   -1.4920 c         1 CZN      0.667500
      3 N4         -1.3710    0.9340   -0.9090 n         1 CZN     -0.350500
      4 C5         -2.7030    1.0500   -0.5250 c2        1 CZN     -0.062400
      5 C9         -0.5620   -0.1230   -0.3780 c2        1 CZN      0.431900
      6 C8         -1.2890   -1.2880    0.2920 c3        1 CZN      0.172200
      7 N7         -2.5280   -0.8990    0.9550 nh        1 CZN     -0.709000
      8 C6         -3.2480    0.1910    0.3920 ce        1 CZN      0.059800
      9 C22        -4.6440    0.3620    0.8150 ca        1 CZN     -0.083800
     10 C23        -5.1540    1.6550    1.0190 ca        1 CZN     -0.074500
     11 C24        -6.4740    1.8460    1.4040 ca        1 CZN     -0.189000
     12 C25        -7.3000    0.7240    1.5930 ca        1 CZN      0.132100
     13 C26        -6.8040   -0.5720    1.3970 ca        1 CZN     -0.189000
     14 C27        -5.4780   -0.7460    1.0090 ca        1 CZN     -0.074500
     15 O28        -8.5960    0.9750    1.9770 oh        1 CZN     -0.495100
     16 C29        -1.5540   -2.3620   -0.7890 c3        1 CZN     -0.033100
     17 C30        -0.2960   -2.9940   -1.2680 ca        1 CZN     -0.082300
     18 C31         0.4380   -3.8370   -0.4250 ca        1 CZN     -0.125000
     19 C32         1.6040   -4.4490   -0.8830 ca        1 CZN     -0.129500
     20 C33         2.0450   -4.2260   -2.1880 ca        1 CZN     -0.123000
     21 C34         1.3160   -3.3910   -3.0340 ca        1 CZN     -0.129500
     22 C35         0.1490   -2.7780   -2.5780 ca        1 CZN     -0.125000
     23 N1          0.7330    0.0160   -0.5580 n2        1 CZN     -0.600900
     24 C2          0.9440    1.2890   -1.3030 c3        1 CZN      0.217000
     25 O36         1.5580    1.0990   -2.6080 os        1 CZN     -0.170800
     26 O37         0.9820    0.2230   -3.3480 oh        1 CZN     -0.392000
     27 C10         1.8300    2.3230   -0.5940 c3        1 CZN     -0.009100
     28 C11         3.0780    1.7560   -0.0180 ca        1 CZN     -0.069300
     29 C12         3.2820    1.7330    1.3430 ca        1 CZN     -0.107000
     30 C13         4.4940    1.2290    1.8870 ca        1 CZN     -0.036000
     31 C14         4.7260    1.2000    3.2900 ca        1 CZN     -0.117000
     32 C18         5.4990    0.7430    1.0120 ca        1 CZN     -0.033000
     33 C19         5.2640    0.7730   -0.3900 ca        1 CZN     -0.119000
     34 C20         4.0870    1.2660   -0.8910 ca        1 CZN     -0.109000
     35 C17         6.7110    0.2400    1.5590 ca        1 CZN     -0.117000
     36 C16         6.9080    0.2230    2.9180 ca        1 CZN     -0.128000
     37 C15         5.9050    0.7080    3.7920 ca        1 CZN     -0.129000
     38 H5         -3.2740    1.8490   -1.0280 h4        1 CZN      0.182000
     39 H8         -0.5970   -1.7380    1.0670 h1        1 CZN      0.091700
     40 HN7        -2.4020   -0.7690    1.9410 hn        1 CZN      0.395800
     41 H23        -4.5000    2.5290    0.8750 ha        1 CZN      0.144000
     42 H24        -6.8820    2.8540    1.5650 ha        1 CZN      0.145000
     43 H26        -7.4570   -1.4440    1.5450 ha        1 CZN      0.145000
     44 H27        -5.0900   -1.7640    0.8490 ha        1 CZN      0.144000
     45 H28        -9.0520    0.1250    2.0630 ho        1 CZN      0.421000
     46 H291       -2.2160   -3.1560   -0.3470 hc        1 CZN      0.069700
     47 H292       -2.1130   -1.8990   -1.6450 hc        1 CZN      0.069700
     48 H31         0.0920   -4.0170    0.6040 ha        1 CZN      0.133500
     49 H32         2.1770   -5.1060   -0.2140 ha        1 CZN      0.132500
     50 H33         2.9650   -4.7080   -2.5480 ha        1 CZN      0.133000
     51 H34         1.6580   -3.2160   -4.0650 ha        1 CZN      0.132500
     52 H35        -0.4240   -2.1210   -3.2510 ha        1 CZN      0.133500
     53 H37         1.3930   -0.6590   -3.1670 ho        1 CZN      0.415000
     54 H101        2.0900    3.1100   -1.3560 hc        1 CZN      0.075700
     55 H102        1.2140    2.8100    0.2090 hc        1 CZN      0.075700
     56 H12         2.5120    2.1050    2.0360 ha        1 CZN      0.129000
     57 H14         3.9410    1.5790    3.9620 ha        1 CZN      0.130000
     58 H19         6.0460    0.3920   -1.0640 ha        1 CZN      0.133000
     59 H20         3.8950    1.2840   -1.9760 ha        1 CZN      0.145000
     60 H17         7.4840   -0.1340    0.8710 ha        1 CZN      0.132000
     61 H16         7.8450   -0.1660    3.3440 ha        1 CZN      0.131000
     62 H15         6.0870    0.6840    4.8770 ha        1 CZN      0.131000
@<TRIPOS>BOND
     1    1    2 2   
     2    2    3 1   
     3    2   24 1   
     4    3    4 1   
     5    3    5 1   
     6    4    8 2   
     7    4   38 1   
     8    5    6 1   
     9    5   23 2   
    10    6    7 1   
    11    6   16 1   
    12    6   39 1   
    13    7    8 1   
    14    7   40 1   
    15    8    9 1   
    16    9   10 ar  
    17    9   14 ar  
    18   10   11 ar  
    19   10   41 1   
    20   11   12 ar  
    21   11   42 1   
    22   12   13 ar  
    23   12   15 1   
    24   13   14 ar  
    25   13   43 1   
    26   14   44 1   
    27   15   45 1   
    28   16   17 1   
    29   16   46 1   
    30   16   47 1   
    31   17   18 ar  
    32   17   22 ar  
    33   18   19 ar  
    34   18   48 1   
    35   19   20 ar  
    36   19   49 1   
    37   20   21 ar  
    38   20   50 1   
    39   21   22 ar  
    40   21   51 1   
    41   22   52 1   
    42   23   24 1   
    43   24   25 1   
    44   24   27 1   
    45   25   26 1   
    46   26   53 1   
    47   27   28 1   
    48   27   54 1   
    49   27   55 1   
    50   28   29 ar  
    51   28   34 ar  
    52   29   30 ar  
    53   29   56 1   
    54   30   31 ar  
    55   30   32 ar  
    56   31   37 ar  
    57   31   57 1   
    58   32   33 ar  
    59   32   35 ar  
    60   33   34 ar  
    61   33   58 1   
    62   34   59 1   
    63   35   36 ar  
    64   35   60 1   
    65   36   37 ar  
    66   36   61 1   
    67   37   62 1   
@<TRIPOS>SUBSTRUCTURE
     1 CZN         1 TEMP              0 ****  ****    0 ROOT
