@<TRIPOS>MOLECULE
CZN
   62    58     1     0     0
SMALL
bcc


@<TRIPOS>ATOM
      1 O21        -2.8810    0.5860   -0.0200 o         1 CZN     -0.274000
      2 C3         -1.6600    0.5590   -0.0240 c1        1 CZN      0.282000
      3 N4         -0.7600    0.5620    1.2070 n2        1 CZN     -0.270000
      4 C5         -0.7970   -0.7590    1.9610 c2        1 CZN     -0.084000
      5 C9          0.4390    0.9770    0.7450 c2        1 CZN      0.104000
      6 C8          1.6940    0.4620    1.4750 c3        1 CZN      0.061000
      7 N7          1.7180   -0.8950    1.5680 n3        1 CZN     -0.279000
      8 C6          0.5930   -1.5220    2.1240 c2        1 CZN     -0.010000
      9 C22         0.7650   -2.5640    3.2060 c2        1 CZN     -0.074000
     10 C23         0.8750   -3.9120    2.8620 c1        1 CZN     -0.077000
     11 C24         0.9140   -4.8800    3.8530 c1        1 CZN     -0.155000
     12 C25         0.8420   -4.5070    5.1910 c1        1 CZN      0.087000
     13 C26         0.7320   -3.1610    5.5330 c1        1 CZN     -0.212000
     14 C27         0.6930   -2.1930    4.5400 c2        1 CZN     -0.083000
     15 O28         0.9180   -5.5000    6.2150 oh        1 CZN     -0.247000
     16 C29         3.0520    1.0310    0.7970 c3        1 CZN     -0.120000
     17 C30         3.7020    2.0720    1.7370 c2        1 CZN     -0.091000
     18 C31         4.9280    1.7930    2.3400 c2        1 CZN     -0.126000
     19 C32         5.5800    2.7760    3.0670 c1        1 CZN     -0.130000
     20 C33         5.0100    4.0440    3.1960 c1        1 CZN     -0.124500
     21 C34         3.8000    4.3190    2.6020 c1        1 CZN     -0.124500
     22 C35         3.1390    3.3300    1.8670 c1        1 CZN     -0.126000
     23 N1          0.4820    1.2280   -0.5630 n1        1 CZN     -0.231000
     24 C2         -0.7070    1.0430   -1.2280 c2        1 CZN      0.077000
     25 O36        -1.1750    2.1870   -1.9210 os        1 CZN     -0.085000
     26 O37        -0.7990    3.3720   -1.1220 oh        1 CZN     -0.188000
     27 C10        -0.6070    0.0500   -2.3060 c3        1 CZN     -0.090000
     28 C11        -1.7450    0.2490   -3.2790 c2        1 CZN     -0.081000
     29 C12        -2.6680   -0.7640   -3.5160 c2        1 CZN     -0.092000
     30 C13        -3.6300   -0.6160   -4.5280 c1        1 CZN     -0.038000
     31 C14        -4.5550   -1.6550   -4.7850 c1        1 CZN     -0.124500
     32 C18        -3.6580    0.5400   -5.2900 c2        1 CZN     -0.031000
     33 C19        -2.7210    1.5680   -5.0490 c1        1 CZN     -0.123000
     34 C20        -1.7740    1.4210   -4.0520 c1        1 CZN     -0.111000
     35 C17        -4.6070    0.6800   -6.3180 c2        1 CZN     -0.122000
     36 C16        -5.5220   -0.3480   -6.5710 c1        1 CZN     -0.125000
     37 C15        -5.4940   -1.5140   -5.8030 c1        1 CZN     -0.124500
     38 H5         -1.6370   -1.2530    2.0420 h4        1 CZN      0.182000
     39 H8          1.7530    0.8570    2.3570 h1        1 CZN      0.093000
     40 HN7         2.5310   -1.3540    1.5130 hn        1 CZN      0.210000
     41 H23         0.9260   -4.1750    1.9190 ha        1 CZN      0.145000
     42 H24         0.9930   -5.8420    3.6080 ha        1 CZN      0.156000
     43 H26         0.6800   -2.8970    6.4780 ha        1 CZN      0.137000
     44 H27         0.6160   -1.2410    4.7830 ha        1 CZN      0.133000
     45 H28         0.1050   -5.7170    6.4750 ho        1 CZN      0.220000
     46 H291        3.6800    0.2870    0.6460 hc        1 CZN      0.116000
     47 H292        2.8360    1.4560   -0.0610 hc        1 CZN      0.116000
     48 H31         5.3260    0.9090    2.2490 ha        1 CZN      0.143000
     49 H32         6.4530    2.5780    3.4970 ha        1 CZN      0.135000
     50 H33         5.4730    4.7410    3.7130 ha        1 CZN      0.134000
     51 H34         3.3980    5.2160    2.6930 ha        1 CZN      0.134000
     52 H35         2.2800    3.5260    1.4450 ha        1 CZN      0.134000
     53 H37        -1.1760    4.1020   -1.4760 ho        1 CZN      0.206000
     54 H101        0.2390    0.1600   -2.7700 hc        1 CZN      0.111500
     55 H102       -0.6560   -0.8450   -1.9280 hc        1 CZN      0.111500
     56 H12        -2.6310   -1.5840   -2.9980 ha        1 CZN      0.154000
     57 H14        -4.5350   -2.4910   -4.2350 ha        1 CZN      0.134000
     58 H19        -2.7420    2.3950   -5.5940 ha        1 CZN      0.131000
     59 H20        -1.0820    2.0900   -3.9410 ha        1 CZN      0.131000
     60 H17        -4.6280    1.5060   -6.8620 ha        1 CZN      0.131000
     61 H16        -6.1800   -0.2510   -7.2840 ha        1 CZN      0.130000
     62 H15        -6.1350   -2.2330   -5.9800 ha        1 CZN      0.134000
@<TRIPOS>BOND
     1    1    2 1   
     2    2   24 1   
     3    3    4 1   
     4    3    5 1   
     5    4    8 1   
     6    4   38 1   
     7    5    6 1   
     8    5   23 1   
     9    6    7 1   
    10    6   16 1   
    11    6   39 1   
    12    7    8 1   
    13    7   40 1   
    14    8    9 1   
    15    9   10 1   
    16    9   14 1   
    17   10   41 1   
    18   11   12 1   
    19   11   42 1   
    20   12   15 1   
    21   13   14 1   
    22   13   43 1   
    23   14   44 1   
    24   15   45 1   
    25   16   17 1   
    26   16   46 1   
    27   16   47 1   
    28   17   18 1   
    29   17   22 1   
    30   18   19 1   
    31   18   48 1   
    32   19   49 1   
    33   20   21 1   
    34   20   50 1   
    35   21   51 1   
    36   22   52 1   
    37   24   25 1   
    38   24   27 1   
    39   25   26 1   
    40   26   53 1   
    41   27   28 1   
    42   27   54 1   
    43   27   55 1   
    44   28   29 1   
    45   28   34 1   
    46   29   30 1   
    47   29   56 1   
    48   30   32 1   
    49   31   37 1   
    50   31   57 1   
    51   32   33 1   
    52   32   35 1   
    53   33   58 1   
    54   34   59 1   
    55   35   36 1   
    56   35   60 1   
    57   36   61 1   
    58   37   62 1   
@<TRIPOS>SUBSTRUCTURE
     1 CZN         1 TEMP              0 ****  ****    0 ROOT
