@<TRIPOS>MOLECULE
CZN
   62    67     1     0     0
SMALL
bcc


@<TRIPOS>ATOM
      1 O21        -0.2200    0.1080    0.0250 o         1 CZN     -0.558500
      2 C3          0.9870   -0.1190   -0.0190 c         1 CZN      0.646500
      3 N4          1.8490   -0.3190    1.0800 n         1 CZN     -0.344500
      4 C5          1.6700    0.0110    2.4210 c2        1 CZN     -0.077400
      5 C9          3.1720   -0.5570    0.5670 c2        1 CZN      0.425900
      6 C8          4.2770   -0.8260    1.5860 c3        1 CZN      0.176200
      7 N7          4.0750   -0.1520    2.8620 nh        1 CZN     -0.717000
      8 C6          2.7440    0.1220    3.2650 ce        1 CZN      0.078800
      9 C22         2.5310    0.5150    4.6650 ca        1 CZN     -0.088800
     10 C23         1.5910    1.5120    4.9710 ca        1 CZN     -0.073000
     11 C24         1.3600    1.8910    6.2870 ca        1 CZN     -0.189000
     12 C25         2.0850    1.2640    7.3150 ca        1 CZN      0.134100
     13 C26         3.0300    0.2700    7.0240 ca        1 CZN     -0.189000
     14 C27         3.2480   -0.0990    5.6990 ca        1 CZN     -0.073000
     15 O28         1.8160    1.6810    8.5970 oh        1 CZN     -0.494100
     16 C29         4.3730   -2.3610    1.7660 c3        1 CZN     -0.030100
     17 C30         5.1880   -2.9840    0.6890 ca        1 CZN     -0.097300
     18 C31         6.5810   -3.0500    0.8200 ca        1 CZN     -0.113500
     19 C32         7.3530   -3.6580   -0.1680 ca        1 CZN     -0.129500
     20 C33         6.7390   -4.2060   -1.2960 ca        1 CZN     -0.125000
     21 C34         5.3540   -4.1410   -1.4320 ca        1 CZN     -0.129500
     22 C35         4.5780   -3.5330   -0.4450 ca        1 CZN     -0.113500
     23 N1          3.2700   -0.5630   -0.7420 n2        1 CZN     -0.569900
     24 C2          1.9110   -0.3080   -1.2940 c3        1 CZN      0.218000
     25 O36         1.3920   -1.4200   -2.0790 os        1 CZN     -0.173800
     26 O37         1.2850   -2.5180   -1.4180 oh        1 CZN     -0.389000
     27 C10         1.7930    0.9150   -2.2120 c3        1 CZN     -0.007100
     28 C11         2.9660    1.1360   -3.0980 ca        1 CZN     -0.071300
     29 C12         3.5280    2.3900   -3.2090 ca        1 CZN     -0.115000
     30 C13         4.6190    2.6220   -4.0890 ca        1 CZN     -0.038000
     31 C14         5.2080    3.9090   -4.2220 ca        1 CZN     -0.118000
     32 C18         5.1320    1.5440   -4.8550 ca        1 CZN     -0.032000
     33 C19         4.5410    0.2580   -4.7190 ca        1 CZN     -0.119000
     34 C20         3.4870    0.0590   -3.8650 ca        1 CZN     -0.100000
     35 C17         6.2240    1.7780   -5.7350 ca        1 CZN     -0.117000
     36 C16         6.7760    3.0310   -5.8430 ca        1 CZN     -0.128000
     37 C15         6.2620    4.1070   -5.0790 ca        1 CZN     -0.130000
     38 H5          0.6240    0.1380    2.7440 h4        1 CZN      0.180000
     39 H8          5.2570   -0.4650    1.1480 h1        1 CZN      0.096700
     40 HN7         4.6570    0.6580    2.9610 hn        1 CZN      0.399800
     41 H23         1.0300    2.0030    4.1600 ha        1 CZN      0.144500
     42 H24         0.6250    2.6690    6.5370 ha        1 CZN      0.145500
     43 H26         3.5920   -0.2160    7.8340 ha        1 CZN      0.145500
     44 H27         3.9850   -0.8840    5.4700 ha        1 CZN      0.144500
     45 H28         2.3740    1.1710    9.2020 ho        1 CZN      0.421000
     46 H291        4.8450   -2.5840    2.7610 hc        1 CZN      0.066700
     47 H292        3.3420   -2.8030    1.7820 hc        1 CZN      0.066700
     48 H31         7.0670   -2.6230    1.7100 ha        1 CZN      0.136500
     49 H32         8.4460   -3.7060   -0.0590 ha        1 CZN      0.131500
     50 H33         7.3490   -4.6850   -2.0750 ha        1 CZN      0.130000
     51 H34         4.8670   -4.5650   -2.3220 ha        1 CZN      0.131500
     52 H35         3.4850   -3.4710   -0.5690 ha        1 CZN      0.136500
     53 H37         0.3580   -2.5760   -1.0820 ho        1 CZN      0.407000
     54 H101        1.6180    1.8150   -1.5630 hc        1 CZN      0.075200
     55 H102        0.8760    0.7670   -2.8480 hc        1 CZN      0.075200
     56 H12         3.1420    3.2360   -2.6200 ha        1 CZN      0.128000
     57 H14         4.8030    4.7390   -3.6240 ha        1 CZN      0.130000
     58 H19         4.9490   -0.5750   -5.3100 ha        1 CZN      0.134000
     59 H20         3.0330   -0.9380   -3.7450 ha        1 CZN      0.153000
     60 H17         6.6160    0.9360   -6.3240 ha        1 CZN      0.132000
     61 H16         7.6200    3.2150   -6.5230 ha        1 CZN      0.131000
     62 H15         6.7200    5.1020   -5.1840 ha        1 CZN      0.131000
@<TRIPOS>BOND
     1    1    2 2   
     2    2    3 1   
     3    2   24 1   
     4    3    4 1   
     5    3    5 1   
     6    4    8 2   
     7    4   38 1   
     8    5    6 1   
     9    5   23 2   
    10    6    7 1   
    11    6   16 1   
    12    6   39 1   
    13    7    8 1   
    14    7   40 1   
    15    8    9 1   
    16    9   10 ar  
    17    9   14 ar  
    18   10   11 ar  
    19   10   41 1   
    20   11   12 ar  
    21   11   42 1   
    22   12   13 ar  
    23   12   15 1   
    24   13   14 ar  
    25   13   43 1   
    26   14   44 1   
    27   15   45 1   
    28   16   17 1   
    29   16   46 1   
    30   16   47 1   
    31   17   18 ar  
    32   17   22 ar  
    33   18   19 ar  
    34   18   48 1   
    35   19   20 ar  
    36   19   49 1   
    37   20   21 ar  
    38   20   50 1   
    39   21   22 ar  
    40   21   51 1   
    41   22   52 1   
    42   23   24 1   
    43   24   25 1   
    44   24   27 1   
    45   25   26 1   
    46   26   53 1   
    47   27   28 1   
    48   27   54 1   
    49   27   55 1   
    50   28   29 ar  
    51   28   34 ar  
    52   29   30 ar  
    53   29   56 1   
    54   30   31 ar  
    55   30   32 ar  
    56   31   37 ar  
    57   31   57 1   
    58   32   33 ar  
    59   32   35 ar  
    60   33   34 ar  
    61   33   58 1   
    62   34   59 1   
    63   35   36 ar  
    64   35   60 1   
    65   36   37 ar  
    66   36   61 1   
    67   37   62 1   
@<TRIPOS>SUBSTRUCTURE
     1 CZN         1 TEMP              0 ****  ****    0 ROOT
