@<TRIPOS>MOLECULE
CZO
   44    43     1     0     0
SMALL
bcc


@<TRIPOS>ATOM
      1 N1         -1.3710    2.2330    2.1090 n3        1 CZO     -0.340000
      2 CA1        -0.1380    2.5210    1.5320 c3        1 CZO     -0.018000
      3 CB1         0.8500    2.9010    2.6130 c3        1 CZO      0.045000
      4 CG1         0.7030    4.3840    2.9370 c3        1 CZO     -0.205000
      5 OG1         0.5970    2.1440    3.7640 oh        1 CZO     -0.351000
      6 C1          0.3870    1.2620    0.7670 c3        1 CZO      0.178000
      7 N2         -0.2980    0.3020    1.0250 n3        1 CZO     -0.315000
      8 N3          0.2560    1.4720   -0.7640 n         1 CZO     -0.285000
      9 C2         -0.4260    0.2300   -1.3050 c2        1 CZO      0.278000
     10 O2         -0.6590   -0.0040   -2.4750 o         1 CZO     -0.337000
     11 CA2        -0.3440   -0.6480   -0.3540 c3        1 CZO     -0.083000
     12 CA3         0.4390    2.7260   -1.4740 c3        1 CZO     -0.144000
     13 C3          1.2500    2.4730   -2.7610 c2        1 CZO      0.312000
     14 O3          2.4340    2.8940   -2.8520 o         1 CZO     -0.571000
     15 CB2        -1.4890   -1.6960   -0.3620 c3        1 CZO     -0.107000
     16 CG2        -0.9500   -3.0580   -0.9330 c2        1 CZO     -0.101000
     17 CD1        -0.7240   -4.1260   -0.0780 c2        1 CZO     -0.098000
     18 CD2        -0.8190   -3.2300   -2.3060 c1        1 CZO     -0.084000
     19 CE1        -0.3650   -5.3710   -0.5970 c1        1 CZO     -0.166000
     20 CE2        -0.4610   -4.4720   -2.8220 c1        1 CZO     -0.210000
     21 CZ         -0.2340   -5.5410   -1.9650 c1        1 CZO      0.063000
     22 OH         -0.0420   -6.8470   -2.4990 oh        1 CZO     -0.264000
     23 O           1.7270    1.0090    1.1080 oh        1 CZO     -0.361000
     24 OXT         0.6950    1.9400   -3.7570 o         1 CZO     -0.571000
     25 HN1        -2.0240    2.7000    1.6790 hn        1 CZO      0.152000
     26 HN1A       -1.3580    2.4700    2.9880 hn        1 CZO      0.152000
     27 HA1        -0.2370    3.2650    0.9050 h1        1 CZO      0.114000
     28 HB1         1.7610    2.7250    2.2990 h1        1 CZO      0.096000
     29 HG1        -0.0280    4.5070    3.5930 hc        1 CZO      0.077000
     30 HG1A        0.4950    4.8770    2.1220 hc        1 CZO      0.077000
     31 HG1B        1.5510    4.7230    3.3210 hc        1 CZO      0.077000
     32 HOG1        1.1740    2.3770    4.4070 ho        1 CZO      0.218000
     33 HN2         0.0840   -0.1710    1.7080 hn        1 CZO      0.185000
     34 HA2         0.4520   -1.2180   -0.4410 h1        1 CZO      0.136000
     35 HA3         0.9230    3.3590   -0.9020 h1        1 CZO      0.103000
     36 HA3A       -0.4430    3.1010   -1.7090 h1        1 CZO      0.103000
     37 HB2        -2.2180   -1.3760   -0.9210 hc        1 CZO      0.096000
     38 HB2A       -1.8120   -1.8310    0.5500 hc        1 CZO      0.096000
     39 HD1        -0.8970   -4.0290    0.8760 ha        1 CZO      0.132000
     40 HD2        -0.9790   -2.4740   -2.9130 ha        1 CZO      0.175000
     41 HE1        -0.2050   -6.1300    0.0100 ha        1 CZO      0.139000
     42 HE2        -0.3120   -4.5770   -3.7870 ha        1 CZO      0.131000
     43 HOH         0.8090   -6.9490   -2.7350 ho        1 CZO      0.212000
     44 HO          2.2470    1.1530    0.3990 ho        1 CZO      0.264000
@<TRIPOS>BOND
     1    1    2 1   
     2    1   25 1   
     3    1   26 1   
     4    2    3 1   
     5    2    6 1   
     6    2   27 1   
     7    3    4 1   
     8    3    5 1   
     9    3   28 1   
    10    4   29 1   
    11    4   30 1   
    12    4   31 1   
    13    5   32 1   
    14    6    7 1   
    15    6    8 1   
    16    6   23 1   
    17    7   11 1   
    18    7   33 1   
    19    8    9 1   
    20    8   12 1   
    21    9   10 1   
    22    9   11 1   
    23   11   15 1   
    24   11   34 1   
    25   12   13 1   
    26   12   35 1   
    27   12   36 1   
    28   13   14 1   
    29   13   24 1   
    30   15   16 1   
    31   15   37 1   
    32   15   38 1   
    33   16   17 1   
    34   16   18 1   
    35   17   19 1   
    36   17   39 1   
    37   18   40 1   
    38   19   41 1   
    39   20   21 1   
    40   20   42 1   
    41   21   22 1   
    42   22   43 1   
    43   23   44 1   
@<TRIPOS>SUBSTRUCTURE
     1 CZO         1 TEMP              0 ****  ****    0 ROOT
