@<TRIPOS>MOLECULE
CZO
   44    45     1     0     0
SMALL
bcc


@<TRIPOS>ATOM
      1 N1          0.8540   -1.7600    1.9920 n3        1 CZO     -0.903800
      2 CA1         1.4500   -1.9270    0.6920 c3        1 CZO      0.179500
      3 CB1         0.8160   -3.0950   -0.1050 c3        1 CZO      0.152100
      4 CG1         1.2750   -4.4300    0.4580 c3        1 CZO     -0.087100
      5 OG1        -0.6050   -3.1080   -0.0430 oh        1 CZO     -0.623800
      6 C1          1.4730   -0.6070   -0.2100 c3        1 CZO      0.455400
      7 N2          0.0680   -0.1640   -0.5210 n3        1 CZO     -0.843200
      8 N3          2.1570    0.4980    0.5450 n         1 CZO     -0.437800
      9 C2          1.2270    1.5400    0.7390 c         1 CZO      0.679500
     10 O2          1.4030    2.5700    1.4010 o         1 CZO     -0.609500
     11 CA2        -0.1310    1.1500    0.0960 c3        1 CZO      0.069500
     12 CA3         3.5180    0.8370    0.1930 c3        1 CZO     -0.065000
     13 C3          3.7390    1.6160   -1.1350 c         1 CZO      0.898600
     14 O3          2.8000    1.6310   -1.9900 o         1 CZO     -0.833300
     15 CB2        -1.2240    1.1710    1.1680 c3        1 CZO     -0.020100
     16 CG2        -2.5730    0.8890    0.6100 ca        1 CZO     -0.097300
     17 CD1        -3.0220   -0.4320    0.4860 ca        1 CZO     -0.088500
     18 CD2        -3.4100    1.9380    0.2110 ca        1 CZO     -0.088500
     19 CE1        -4.2880   -0.7060   -0.0230 ca        1 CZO     -0.187500
     20 CE2        -4.6790    1.6860   -0.2990 ca        1 CZO     -0.187500
     21 CZ         -5.1140    0.3570   -0.4130 ca        1 CZO      0.107100
     22 OH         -6.3830    0.1620   -0.9190 oh        1 CZO     -0.508100
     23 O           2.1440   -1.0230   -1.3890 oh        1 CZO     -0.647800
     24 OXT         4.8560    2.1670   -1.2880 o         1 CZO     -0.833300
     25 HN1         1.2040   -0.9410    2.4490 hn        1 CZO      0.356300
     26 HN1A       -0.1440   -1.6940    1.9130 hn        1 CZO      0.356300
     27 HA1         2.5410   -2.1820    0.8460 h1        1 CZO      0.075700
     28 HB1         1.1400   -3.0020   -1.1810 h1        1 CZO      0.059700
     29 HG1         0.8010   -5.2620   -0.1140 hc        1 CZO      0.038367
     30 HG1A        2.3840   -4.5090    0.3710 hc        1 CZO      0.038367
     31 HG1B        0.9820   -4.5230    1.5300 hc        1 CZO      0.038367
     32 HOG1       -0.9140   -2.2960   -0.4610 ho        1 CZO      0.415000
     33 HN2        -0.0400   -0.1010   -1.5170 hn        1 CZO      0.375800
     34 HA2        -0.3720    1.9360   -0.6760 h1        1 CZO      0.083700
     35 HA3         3.9270    1.4620    1.0330 h1        1 CZO      0.060700
     36 HA3A        4.0990   -0.1240    0.1260 h1        1 CZO      0.060700
     37 HB2        -0.9860    0.4250    1.9730 hc        1 CZO      0.058200
     38 HB2A       -1.2010    2.1920    1.6380 hc        1 CZO      0.058200
     39 HD1        -2.3610   -1.2620    0.7870 ha        1 CZO      0.144000
     40 HD2        -3.0580    2.9780    0.3010 ha        1 CZO      0.144000
     41 HE1        -4.6340   -1.7440   -0.1210 ha        1 CZO      0.135500
     42 HE2        -5.3400    2.5040   -0.6150 ha        1 CZO      0.135500
     43 HOH        -6.5290   -0.7920   -0.9820 ho        1 CZO      0.412000
     44 HO          2.3850   -0.2480   -1.9350 ho        1 CZO      0.473000
@<TRIPOS>BOND
     1    1    2 1   
     2    1   25 1   
     3    1   26 1   
     4    2    3 1   
     5    2    6 1   
     6    2   27 1   
     7    3    4 1   
     8    3    5 1   
     9    3   28 1   
    10    4   29 1   
    11    4   30 1   
    12    4   31 1   
    13    5   32 1   
    14    6    7 1   
    15    6    8 1   
    16    6   23 1   
    17    7   11 1   
    18    7   33 1   
    19    8    9 1   
    20    8   12 1   
    21    9   10 2   
    22    9   11 1   
    23   11   15 1   
    24   11   34 1   
    25   12   13 1   
    26   12   35 1   
    27   12   36 1   
    28   13   14 1   
    29   13   24 1   
    30   15   16 1   
    31   15   37 1   
    32   15   38 1   
    33   16   17 ar  
    34   16   18 ar  
    35   17   19 ar  
    36   17   39 1   
    37   18   20 ar  
    38   18   40 1   
    39   19   21 ar  
    40   19   41 1   
    41   20   21 ar  
    42   20   42 1   
    43   21   22 1   
    44   22   43 1   
    45   23   44 1   
@<TRIPOS>SUBSTRUCTURE
     1 CZO         1 TEMP              0 ****  ****    0 ROOT
