@<TRIPOS>MOLECULE
CZP
   60    64     1     0     0
SMALL
bcc


@<TRIPOS>ATOM
      1 O25        -0.1630   -0.3140   -0.2170 oh        1 CZP     -0.494100
      2 C22         1.2070   -0.2440   -0.1210 ca        1 CZP      0.132100
      3 C23         1.8610    0.3980    0.9400 ca        1 CZP     -0.186500
      4 C24         3.2520    0.4300    0.9660 ca        1 CZP     -0.078000
      5 C21         1.9390   -0.8530   -1.1550 ca        1 CZP     -0.186500
      6 C20         3.3270   -0.8100   -1.1150 ca        1 CZP     -0.078000
      7 C19         3.9950   -0.1710   -0.0590 ca        1 CZP     -0.092800
      8 C6          5.4640   -0.1500   -0.0350 ce        1 CZP      0.071800
      9 N7          6.1080    1.0360    0.3970 nh        1 CZP     -0.703000
     10 C8          7.5070    1.2270    0.0290 c3        1 CZP      0.166200
     11 C26         7.7530    1.9830   -1.2900 c3        1 CZP     -0.108400
     12 C27         7.3770    3.4480   -1.1960 c3        1 CZP     -0.066700
     13 C28         8.2600    4.2330   -0.2250 c3        1 CZP     -0.079400
     14 C29         8.4630    5.6170   -0.8270 c3        1 CZP     -0.078900
     15 C30         7.9830    5.5660   -2.2720 c3        1 CZP     -0.078900
     16 C31         7.5200    4.1430   -2.5520 c3        1 CZP     -0.079400
     17 C9          8.2730   -0.0900   -0.0470 c2        1 CZP      0.464900
     18 N4          7.5550   -1.2790   -0.3890 n         1 CZP     -0.339500
     19 C5          6.1620   -1.2880   -0.3400 c2        1 CZP     -0.079400
     20 N1          9.5660   -0.2510    0.1450 n2        1 CZP     -0.620900
     21 C2          9.8670   -1.6960   -0.0400 c3        1 CZP      0.218000
     22 C3          8.4640   -2.3680   -0.3380 c         1 CZP      0.665500
     23 O18         8.1990   -3.5460   -0.5490 o         1 CZP     -0.539500
     24 O32        10.4630   -2.3180    1.1310 os        1 CZP     -0.174800
     25 C10        10.8270   -2.0240   -1.1940 c3        1 CZP     -0.003100
     26 C11        12.0670   -1.2070   -1.1930 ca        1 CZP     -0.111300
     27 C12        12.2870   -0.2530   -2.1940 ca        1 CZP     -0.078000
     28 C13        13.4600    0.4940   -2.2220 ca        1 CZP     -0.186500
     29 C14        14.4280    0.2800   -1.2270 ca        1 CZP      0.127100
     30 O17        15.5690    1.0460   -1.3060 oh        1 CZP     -0.498100
     31 C15        14.2220   -0.6700   -0.2170 ca        1 CZP     -0.186500
     32 C16        13.0410   -1.4070   -0.2070 ca        1 CZP     -0.078000
     33 O1          9.8090   -2.1340    2.2210 oh        1 CZP     -0.386000
     34 H25        -0.5400    0.1240    0.5600 ho        1 CZP      0.421000
     35 H23         1.2810    0.8660    1.7480 ha        1 CZP      0.146000
     36 H24         3.7670    0.9200    1.8080 ha        1 CZP      0.144000
     37 H21         1.4070   -1.3520   -1.9760 ha        1 CZP      0.146000
     38 H20         3.9090   -1.2840   -1.9210 ha        1 CZP      0.144000
     39 HN7         5.5660    1.8520    0.1810 hn        1 CZP      0.398800
     40 H8          7.9550    1.8390    0.8740 h1        1 CZP      0.099700
     41 H261        7.1710    1.5030   -2.1190 hc        1 CZP      0.064700
     42 H262        8.8430    1.9010   -1.5480 hc        1 CZP      0.064700
     43 H27         6.3060    3.5410   -0.8640 hc        1 CZP      0.042700
     44 H281        9.2460    3.7200   -0.0930 hc        1 CZP      0.045200
     45 H282        7.7790    4.3000    0.7820 hc        1 CZP      0.045200
     46 H291        7.8840    6.3820   -0.2520 hc        1 CZP      0.042950
     47 H292        9.5410    5.9100   -0.7770 hc        1 CZP      0.042950
     48 H301        7.1410    6.2870   -2.4270 hc        1 CZP      0.042950
     49 H302        8.8020    5.8580   -2.9750 hc        1 CZP      0.042950
     50 H311        6.5490    4.1330   -3.1050 hc        1 CZP      0.045200
     51 H312        8.2730    3.6090   -3.1850 hc        1 CZP      0.045200
     52 H5          5.6840   -2.2550   -0.5650 h4        1 CZP      0.182000
     53 H101       11.0880   -3.1140   -1.1010 hc        1 CZP      0.074700
     54 H102       10.2660   -1.8830   -2.1560 hc        1 CZP      0.074700
     55 H12        11.5250   -0.0870   -2.9710 ha        1 CZP      0.138500
     56 H13        13.6410    1.2440   -3.0040 ha        1 CZP      0.141500
     57 H17        16.1430    0.8010   -0.5650 ho        1 CZP      0.419000
     58 H15        14.9830   -0.8300    0.5590 ha        1 CZP      0.141500
     59 H16        12.8620   -2.1500    0.5860 ha        1 CZP      0.138500
     60 HO1        10.1800   -1.3380    2.6700 ho        1 CZP      0.409000
@<TRIPOS>BOND
     1    1    2 1   
     2    1   34 1   
     3    2    3 ar  
     4    2    5 ar  
     5    3    4 ar  
     6    3   35 1   
     7    4    7 ar  
     8    4   36 1   
     9    5    6 ar  
    10    5   37 1   
    11    6    7 ar  
    12    6   38 1   
    13    7    8 1   
    14    8    9 1   
    15    8   19 2   
    16    9   10 1   
    17    9   39 1   
    18   10   11 1   
    19   10   17 1   
    20   10   40 1   
    21   11   12 1   
    22   11   41 1   
    23   11   42 1   
    24   12   13 1   
    25   12   16 1   
    26   12   43 1   
    27   13   14 1   
    28   13   44 1   
    29   13   45 1   
    30   14   15 1   
    31   14   46 1   
    32   14   47 1   
    33   15   16 1   
    34   15   48 1   
    35   15   49 1   
    36   16   50 1   
    37   16   51 1   
    38   17   18 1   
    39   17   20 2   
    40   18   19 1   
    41   18   22 1   
    42   19   52 1   
    43   20   21 1   
    44   21   22 1   
    45   21   24 1   
    46   21   25 1   
    47   22   23 2   
    48   24   33 1   
    49   25   26 1   
    50   25   53 1   
    51   25   54 1   
    52   26   27 ar  
    53   26   32 ar  
    54   27   28 ar  
    55   27   55 1   
    56   28   29 ar  
    57   28   56 1   
    58   29   30 1   
    59   29   31 ar  
    60   30   57 1   
    61   31   32 ar  
    62   31   58 1   
    63   32   59 1   
    64   33   60 1   
@<TRIPOS>SUBSTRUCTURE
     1 CZP         1 TEMP              0 ****  ****    0 ROOT
