@<TRIPOS>MOLECULE
CZP
   60    64     1     0     0
SMALL
bcc


@<TRIPOS>ATOM
      1 O25         2.9620    6.0920   -0.1870 oh        1 CZP     -0.494100
      2 C22         2.8010    5.1030   -1.1280 ca        1 CZP      0.133100
      3 C23         1.6170    5.1450   -1.8840 ca        1 CZP     -0.186500
      4 C24         1.3940    4.1710   -2.8490 ca        1 CZP     -0.078000
      5 C21         3.7510    4.0940   -1.3390 ca        1 CZP     -0.186500
      6 C20         3.5110    3.1250   -2.3090 ca        1 CZP     -0.078000
      7 C19         2.3350    3.1530   -3.0690 ca        1 CZP     -0.092800
      8 C6          2.1070    2.1260   -4.0950 ce        1 CZP      0.073800
      9 N7          0.7920    1.6230   -4.2550 nh        1 CZP     -0.703000
     10 C8          0.6270    0.3430   -4.9360 c3        1 CZP      0.167200
     11 C26         0.6190   -0.9010   -4.0280 c3        1 CZP     -0.108400
     12 C27        -0.6230   -0.9780   -3.1650 c3        1 CZP     -0.067700
     13 C28        -1.9050   -1.1810   -3.9740 c3        1 CZP     -0.079400
     14 C29        -2.8050   -2.1000   -3.1590 c3        1 CZP     -0.078900
     15 C30        -1.9630   -2.6950   -2.0370 c3        1 CZP     -0.078900
     16 C31        -0.5470   -2.1580   -2.1930 c3        1 CZP     -0.079400
     17 C9          1.6830    0.1180   -6.0140 c2        1 CZP      0.464900
     18 N4          2.9660    0.7320   -5.8530 n         1 CZP     -0.339500
     19 C5          3.1360    1.7510   -4.9180 c2        1 CZP     -0.080400
     20 N1          1.5480   -0.6250   -7.0930 n2        1 CZP     -0.619900
     21 C2          2.8300   -0.5540   -7.8450 c3        1 CZP      0.218000
     22 C3          3.7420    0.4260   -7.0000 c         1 CZP      0.665500
     23 O18         4.8880    0.8020   -7.2230 o         1 CZP     -0.539500
     24 O32         2.6830   -0.0350   -9.1950 os        1 CZP     -0.173800
     25 C10         3.5650   -1.8930   -8.0140 c3        1 CZP     -0.003100
     26 C11         2.7020   -2.9930   -8.5140 ca        1 CZP     -0.111300
     27 C12         2.3760   -4.0690   -7.6840 ca        1 CZP     -0.078500
     28 C13         1.5970   -5.1220   -8.1590 ca        1 CZP     -0.186500
     29 C14         1.1370   -5.0900   -9.4820 ca        1 CZP      0.127100
     30 O17         0.3640   -6.0910  -10.0250 oh        1 CZP     -0.498100
     31 C15         1.4540   -4.0140  -10.3290 ca        1 CZP     -0.186500
     32 C16         2.2340   -2.9760   -9.8360 ca        1 CZP     -0.078500
     33 O1          2.0560    1.0830   -9.2690 oh        1 CZP     -0.386000
     34 H25         3.8200    5.9580    0.2430 ho        1 CZP      0.421000
     35 H23         0.8880    5.9490   -1.7060 ha        1 CZP      0.146000
     36 H24         0.4750    4.2120   -3.4550 ha        1 CZP      0.144500
     37 H21         4.6760    4.0690   -0.7470 ha        1 CZP      0.146000
     38 H20         4.2530    2.3290   -2.4770 ha        1 CZP      0.144500
     39 HN7         0.2790    1.6390   -3.3930 hn        1 CZP      0.399800
     40 H8         -0.3830    0.4090   -5.4510 h1        1 CZP      0.100700
     41 H261        0.6720   -1.8140   -4.6780 hc        1 CZP      0.063700
     42 H262        1.5280   -0.8990   -3.3720 hc        1 CZP      0.063700
     43 H27        -0.7240   -0.0340   -2.5630 hc        1 CZP      0.043700
     44 H281       -1.6700   -1.6490   -4.9650 hc        1 CZP      0.045200
     45 H282       -2.4060   -0.2020   -4.1750 hc        1 CZP      0.045200
     46 H291       -3.2310   -2.9060   -3.8070 hc        1 CZP      0.042950
     47 H292       -3.6670   -1.5260   -2.7350 hc        1 CZP      0.042950
     48 H301       -2.3820   -2.4050   -1.0410 hc        1 CZP      0.042950
     49 H302       -1.9680   -3.8120   -2.0860 hc        1 CZP      0.042950
     50 H311       -0.1260   -1.8340   -1.2100 hc        1 CZP      0.045200
     51 H312        0.1260   -2.9550   -2.6000 hc        1 CZP      0.045200
     52 H5          4.1360    2.2120   -4.8930 h4        1 CZP      0.181000
     53 H101        4.0130   -2.1650   -7.0210 hc        1 CZP      0.074700
     54 H102        4.4090   -1.7120   -8.7360 hc        1 CZP      0.074700
     55 H12         2.7360   -4.0910   -6.6440 ha        1 CZP      0.138500
     56 H13         1.3440   -5.9660   -7.5030 ha        1 CZP      0.141500
     57 H17         0.2200   -6.7600   -9.3400 ho        1 CZP      0.418000
     58 H15         1.0820   -4.0090  -11.3630 ha        1 CZP      0.141500
     59 H16         2.4850   -2.1200  -10.4840 ha        1 CZP      0.138500
     60 HO1         1.1020    0.8900   -9.4310 ho        1 CZP      0.410000
@<TRIPOS>BOND
     1    1    2 1   
     2    1   34 1   
     3    2    3 ar  
     4    2    5 ar  
     5    3    4 ar  
     6    3   35 1   
     7    4    7 ar  
     8    4   36 1   
     9    5    6 ar  
    10    5   37 1   
    11    6    7 ar  
    12    6   38 1   
    13    7    8 1   
    14    8    9 1   
    15    8   19 2   
    16    9   10 1   
    17    9   39 1   
    18   10   11 1   
    19   10   17 1   
    20   10   40 1   
    21   11   12 1   
    22   11   41 1   
    23   11   42 1   
    24   12   13 1   
    25   12   16 1   
    26   12   43 1   
    27   13   14 1   
    28   13   44 1   
    29   13   45 1   
    30   14   15 1   
    31   14   46 1   
    32   14   47 1   
    33   15   16 1   
    34   15   48 1   
    35   15   49 1   
    36   16   50 1   
    37   16   51 1   
    38   17   18 1   
    39   17   20 2   
    40   18   19 1   
    41   18   22 1   
    42   19   52 1   
    43   20   21 1   
    44   21   22 1   
    45   21   24 1   
    46   21   25 1   
    47   22   23 2   
    48   24   33 1   
    49   25   26 1   
    50   25   53 1   
    51   25   54 1   
    52   26   27 ar  
    53   26   32 ar  
    54   27   28 ar  
    55   27   55 1   
    56   28   29 ar  
    57   28   56 1   
    58   29   30 1   
    59   29   31 ar  
    60   30   57 1   
    61   31   32 ar  
    62   31   58 1   
    63   32   59 1   
    64   33   60 1   
@<TRIPOS>SUBSTRUCTURE
     1 CZP         1 TEMP              0 ****  ****    0 ROOT
