@<TRIPOS>MOLECULE
CZP
   60    64     1     0     0
SMALL
bcc


@<TRIPOS>ATOM
      1 O25        -0.1610   -0.3130   -0.2210 oh        1 CZP     -0.494100
      2 C22         1.2090   -0.2420   -0.1240 ca        1 CZP      0.132100
      3 C23         1.8620    0.4040    0.9360 ca        1 CZP     -0.186500
      4 C24         3.2530    0.4360    0.9630 ca        1 CZP     -0.078000
      5 C21         1.9420   -0.8560   -1.1530 ca        1 CZP     -0.186500
      6 C20         3.3300   -0.8140   -1.1110 ca        1 CZP     -0.078000
      7 C19         3.9970   -0.1690   -0.0580 ca        1 CZP     -0.092800
      8 C6          5.4660   -0.1480   -0.0330 ce        1 CZP      0.071800
      9 N7          6.1090    1.0400    0.3950 nh        1 CZP     -0.703000
     10 C8          7.5090    1.2300    0.0270 c3        1 CZP      0.166200
     11 C26         7.7570    1.9810   -1.2940 c3        1 CZP     -0.108400
     12 C27         7.3800    3.4450   -1.2050 c3        1 CZP     -0.066700
     13 C28         8.2620    4.2340   -0.2350 c3        1 CZP     -0.079400
     14 C29         8.4660    5.6150   -0.8420 c3        1 CZP     -0.078900
     15 C30         7.9890    5.5590   -2.2880 c3        1 CZP     -0.078900
     16 C31         7.5260    4.1360   -2.5630 c3        1 CZP     -0.079400
     17 C9          8.2750   -0.0880   -0.0430 c2        1 CZP      0.464900
     18 N4          7.5560   -1.2790   -0.3790 n         1 CZP     -0.339500
     19 C5          6.1640   -1.2880   -0.3320 c2        1 CZP     -0.079400
     20 N1          9.5680   -0.2480    0.1500 n2        1 CZP     -0.620900
     21 C2          9.8690   -1.6940   -0.0290 c3        1 CZP      0.218000
     22 C3          8.4660   -2.3670   -0.3240 c         1 CZP      0.665500
     23 O18         8.2010   -3.5470   -0.5300 o         1 CZP     -0.539500
     24 O32        10.4660   -2.3110    1.1450 os        1 CZP     -0.174800
     25 C10        10.8290   -2.0260   -1.1820 c3        1 CZP     -0.003100
     26 C11        12.0670   -1.2060   -1.1880 ca        1 CZP     -0.111300
     27 C12        12.2840   -0.2610   -2.1990 ca        1 CZP     -0.078000
     28 C13        13.4550    0.4880   -2.2340 ca        1 CZP     -0.186500
     29 C14        14.4230    0.2880   -1.2360 ca        1 CZP      0.127100
     30 O17        15.5620    1.0560   -1.3210 oh        1 CZP     -0.498100
     31 C15        14.2190   -0.6520   -0.2150 ca        1 CZP     -0.186500
     32 C16        13.0400   -1.3930   -0.2000 ca        1 CZP     -0.078000
     33 O1          9.8120   -2.1220    2.2340 oh        1 CZP     -0.386000
     34 H25        -0.5390    0.1290    0.5540 ho        1 CZP      0.421000
     35 H23         1.2800    0.8760    1.7400 ha        1 CZP      0.146000
     36 H24         3.7660    0.9300    1.8030 ha        1 CZP      0.144000
     37 H21         1.4110   -1.3590   -1.9730 ha        1 CZP      0.146000
     38 H20         3.9130   -1.2900   -1.9150 ha        1 CZP      0.144000
     39 HN7         5.5680    1.8550    0.1750 hn        1 CZP      0.398800
     40 H8          7.9560    1.8440    0.8710 h1        1 CZP      0.099700
     41 H261        7.1750    1.4970   -2.1220 hc        1 CZP      0.064700
     42 H262        8.8460    1.8970   -1.5500 hc        1 CZP      0.064700
     43 H27         6.3090    3.5410   -0.8750 hc        1 CZP      0.042700
     44 H281        7.7800    4.3040    0.7710 hc        1 CZP      0.045200
     45 H282        9.2490    3.7210   -0.1010 hc        1 CZP      0.045200
     46 H291        7.8860    6.3830   -0.2710 hc        1 CZP      0.042950
     47 H292        9.5440    5.9100   -0.7910 hc        1 CZP      0.042950
     48 H301        8.8110    5.8480   -2.9900 hc        1 CZP      0.042950
     49 H302        7.1480    6.2810   -2.4480 hc        1 CZP      0.042950
     50 H311        8.2790    3.5990   -3.1940 hc        1 CZP      0.045200
     51 H312        6.5560    4.1250   -3.1180 hc        1 CZP      0.045200
     52 H5          5.6860   -2.2560   -0.5530 h4        1 CZP      0.182000
     53 H101       11.0930   -3.1160   -1.0810 hc        1 CZP      0.074700
     54 H102       10.2670   -1.8950   -2.1450 hc        1 CZP      0.074700
     55 H12        11.5230   -0.1070   -2.9780 ha        1 CZP      0.138500
     56 H13        13.6350    1.2300   -3.0230 ha        1 CZP      0.141500
     57 H17        16.1360    0.8210   -0.5780 ho        1 CZP      0.419000
     58 H15        14.9800   -0.8020    0.5620 ha        1 CZP      0.141500
     59 H16        12.8630   -2.1290    0.6010 ha        1 CZP      0.138500
     60 HO1        10.1820   -1.3240    2.6790 ho        1 CZP      0.409000
@<TRIPOS>BOND
     1    1    2 1   
     2    1   34 1   
     3    2    3 ar  
     4    2    5 ar  
     5    3    4 ar  
     6    3   35 1   
     7    4    7 ar  
     8    4   36 1   
     9    5    6 ar  
    10    5   37 1   
    11    6    7 ar  
    12    6   38 1   
    13    7    8 1   
    14    8    9 1   
    15    8   19 2   
    16    9   10 1   
    17    9   39 1   
    18   10   11 1   
    19   10   17 1   
    20   10   40 1   
    21   11   12 1   
    22   11   41 1   
    23   11   42 1   
    24   12   13 1   
    25   12   16 1   
    26   12   43 1   
    27   13   14 1   
    28   13   44 1   
    29   13   45 1   
    30   14   15 1   
    31   14   46 1   
    32   14   47 1   
    33   15   16 1   
    34   15   48 1   
    35   15   49 1   
    36   16   50 1   
    37   16   51 1   
    38   17   18 1   
    39   17   20 2   
    40   18   19 1   
    41   18   22 1   
    42   19   52 1   
    43   20   21 1   
    44   21   22 1   
    45   21   24 1   
    46   21   25 1   
    47   22   23 2   
    48   24   33 1   
    49   25   26 1   
    50   25   53 1   
    51   25   54 1   
    52   26   27 ar  
    53   26   32 ar  
    54   27   28 ar  
    55   27   55 1   
    56   28   29 ar  
    57   28   56 1   
    58   29   30 1   
    59   29   31 ar  
    60   30   57 1   
    61   31   32 ar  
    62   31   58 1   
    63   32   59 1   
    64   33   60 1   
@<TRIPOS>SUBSTRUCTURE
     1 CZP         1 TEMP              0 ****  ****    0 ROOT
