@<TRIPOS>MOLECULE
CZP
   60    59     1     0     0
SMALL
bcc


@<TRIPOS>ATOM
      1 O25        -8.1130    1.0740   -0.1450 oh        1 CZP     -0.247000
      2 C22        -6.7010    0.8750   -0.0350 c2        1 CZP      0.087000
      3 C23        -6.1570   -0.4050   -0.2070 c2        1 CZP     -0.155000
      4 C24        -4.7870   -0.5990   -0.0910 c1        1 CZP     -0.077000
      5 C21        -5.8720    1.9460    0.2490 c1        1 CZP     -0.212000
      6 C20        -4.4990    1.7510    0.3650 c1        1 CZP     -0.085000
      7 C19        -3.9570    0.4710    0.1940 c1        1 CZP     -0.071000
      8 C6         -2.4300    0.2740    0.2100 c2        1 CZP     -0.016000
      9 N7         -1.8090   -0.3480    1.3210 n3        1 CZP     -0.260000
     10 C8         -0.4230   -0.4000    1.3280 c3        1 CZP      0.047000
     11 C26         0.1970    1.0710    1.6150 c3        1 CZP     -0.189000
     12 C27         0.0680    1.3960    3.1040 c3        1 CZP     -0.109000
     13 C28         1.1520    2.0630    3.5280 c3        1 CZP     -0.159000
     14 C29         0.6040    3.0810    4.6570 c3        1 CZP     -0.157500
     15 C30        -0.9920    3.0550    4.5240 c3        1 CZP     -0.157500
     16 C31        -1.2370    2.4130    3.3600 c3        1 CZP     -0.159000
     17 C9          0.1400   -1.0140    0.0550 c2        1 CZP      0.094000
     18 N4         -0.2660   -0.4710   -1.1400 n         1 CZP     -0.264000
     19 C5         -1.6170    0.2410   -1.1630 c2        1 CZP     -0.085000
     20 N1          1.3750   -1.5390    0.0500 n1        1 CZP     -0.196000
     21 C2          2.0400   -1.4430   -1.1450 c2        1 CZP      0.066000
     22 C3          0.9090   -0.6900   -2.0730 c2        1 CZP      0.303000
     23 O18         0.8640   -0.6930   -3.3040 o         1 CZP     -0.285000
     24 O32         3.2800   -0.7650   -1.0700 os        1 CZP     -0.101000
     25 C10         2.4370   -2.7470   -1.6820 c3        1 CZP     -0.113000
     26 C11         3.4720   -2.5440   -2.8300 c2        1 CZP     -0.131000
     27 C12         3.1170   -1.8320   -3.9680 c2        1 CZP     -0.068000
     28 C13         4.0370   -1.6670   -5.0050 c1        1 CZP     -0.211000
     29 C14         5.3160   -2.2180   -4.8980 c1        1 CZP      0.086000
     30 O17         6.3080   -1.9180   -5.8930 oh        1 CZP     -0.250000
     31 C15         5.6720   -2.9320   -3.7560 c1        1 CZP     -0.161000
     32 C16         4.7520   -3.0960   -2.7220 c1        1 CZP     -0.105000
     33 O1          4.1140   -1.4730   -0.0380 oh        1 CZP     -0.171000
     34 H25        -8.4210    1.4690    0.6040 ho        1 CZP      0.220000
     35 H23        -6.7410   -1.1610   -0.4080 ha        1 CZP      0.155000
     36 H24        -4.4110   -1.4870   -0.2100 ha        1 CZP      0.145000
     37 H21        -6.2480    2.8310    0.3680 ha        1 CZP      0.137000
     38 H20        -3.9090    2.5130    0.5680 ha        1 CZP      0.133000
     39 HN7        -2.2750   -0.4640    2.0990 hn        1 CZP      0.198000
     40 H8         -0.1010   -0.8890    2.1020 h1        1 CZP      0.136000
     41 H261        1.1510    1.0840    1.3560 hc        1 CZP      0.109500
     42 H262       -0.2900    1.7360    1.0940 hc        1 CZP      0.109500
     43 H27        -0.0420    0.5770    3.6170 hc        1 CZP      0.091000
     44 H281        1.8030    1.4410    3.9180 hc        1 CZP      0.082500
     45 H282        1.5590    2.5640    2.7850 hc        1 CZP      0.082500
     46 H291        0.9440    3.9910    4.4880 hc        1 CZP      0.082250
     47 H292        0.8770    2.7760    5.5540 hc        1 CZP      0.082250
     48 H301       -1.3900    2.5580    5.2800 hc        1 CZP      0.082250
     49 H302       -1.3480    3.9760    4.4920 hc        1 CZP      0.082250
     50 H311       -1.3100    3.0630    2.6240 hc        1 CZP      0.082500
     51 H312       -2.0630    1.8890    3.4310 hc        1 CZP      0.082500
     52 H5         -2.0850    0.3840   -2.0150 h4        1 CZP      0.180000
     53 H101        1.6510   -3.2090   -2.0310 hc        1 CZP      0.113500
     54 H102        2.8440   -3.2880   -0.9640 hc        1 CZP      0.113500
     55 H12         2.2270   -1.4480   -4.0430 ha        1 CZP      0.163000
     56 H13         3.7860   -1.1660   -5.8050 ha        1 CZP      0.139000
     57 H17         6.2420   -2.4980   -6.5600 ho        1 CZP      0.220000
     58 H15         6.5640   -3.3170   -3.6800 ha        1 CZP      0.152000
     59 H16         5.0040   -3.6000   -1.9150 ha        1 CZP      0.136000
     60 HO1         4.9870   -1.2460   -0.1460 ho        1 CZP      0.202000
@<TRIPOS>BOND
     1    1    2 1   
     2    1   34 1   
     3    2    3 1   
     4    2    5 1   
     5    3    4 1   
     6    3   35 1   
     7    4   36 1   
     8    5   37 1   
     9    6    7 1   
    10    6   38 1   
    11    7    8 1   
    12    8    9 1   
    13    8   19 1   
    14    9   10 1   
    15    9   39 1   
    16   10   11 1   
    17   10   17 1   
    18   10   40 1   
    19   11   12 1   
    20   11   41 1   
    21   11   42 1   
    22   12   13 1   
    23   12   16 1   
    24   12   43 1   
    25   13   14 1   
    26   13   44 1   
    27   13   45 1   
    28   14   15 1   
    29   14   46 1   
    30   14   47 1   
    31   15   16 1   
    32   15   48 1   
    33   15   49 1   
    34   16   50 1   
    35   16   51 1   
    36   17   18 1   
    37   17   20 1   
    38   18   19 1   
    39   18   22 1   
    40   19   52 1   
    41   21   22 1   
    42   21   24 1   
    43   21   25 1   
    44   22   23 1   
    45   24   33 1   
    46   25   26 1   
    47   25   53 1   
    48   25   54 1   
    49   26   27 1   
    50   26   32 1   
    51   27   28 1   
    52   27   55 1   
    53   28   56 1   
    54   29   30 1   
    55   29   31 1   
    56   30   57 1   
    57   31   58 1   
    58   32   59 1   
    59   33   60 1   
@<TRIPOS>SUBSTRUCTURE
     1 CZP         1 TEMP              0 ****  ****    0 ROOT
