@<TRIPOS>MOLECULE
CZP
   60    64     1     0     0
SMALL
bcc


@<TRIPOS>ATOM
      1 O25        -0.1630   -0.3220   -0.2570 oh        1 CZP     -0.494100
      2 C22         1.2060   -0.2520   -0.1550 ca        1 CZP      0.132100
      3 C23         1.8550    0.3810    0.9140 ca        1 CZP     -0.186500
      4 C24         3.2470    0.4140    0.9460 ca        1 CZP     -0.078000
      5 C21         1.9430   -0.8530   -1.1900 ca        1 CZP     -0.186500
      6 C20         3.3310   -0.8110   -1.1430 ca        1 CZP     -0.078000
      7 C19         3.9940   -0.1790   -0.0800 ca        1 CZP     -0.092800
      8 C6          5.4630   -0.1570   -0.0500 ce        1 CZP      0.071800
      9 N7          6.1040    1.0250    0.3940 nu        1 CZP     -0.703000
     10 C8          7.5050    1.2200    0.0330 c3        1 CZP      0.166200
     11 C26         7.7560    1.9870   -1.2780 c3        1 CZP     -0.108400
     12 C27         7.3790    3.4510   -1.1730 c3        1 CZP     -0.066700
     13 C28         8.2580    4.2280   -0.1920 c3        1 CZP     -0.079400
     14 C29         8.4620    5.6170   -0.7820 c3        1 CZP     -0.078900
     15 C30         7.9900    5.5780   -2.2300 c3        1 CZP     -0.078900
     16 C31         7.5280    4.1570   -2.5230 c3        1 CZP     -0.079400
     17 C9          8.2720   -0.0960   -0.0510 c2        1 CZP      0.464900
     18 N4          7.5550   -1.2830   -0.4040 n         1 CZP     -0.339500
     19 C5          6.1620   -1.2930   -0.3610 c2        1 CZP     -0.079400
     20 N1          9.5650   -0.2580    0.1430 n2        1 CZP     -0.620900
     21 C2          9.8660   -1.7010   -0.0520 c3        1 CZP      0.218000
     22 C3          8.4650   -2.3710   -0.3590 c         1 CZP      0.665500
     23 O18         8.2020   -3.5490   -0.5800 o         1 CZP     -0.539500
     24 O32        10.4600   -2.3320    1.1160 os        1 CZP     -0.174800
     25 C10        10.8300   -2.0190   -1.2060 c3        1 CZP     -0.003100
     26 C11        12.0680   -1.1990   -1.1980 ca        1 CZP     -0.111300
     27 C12        12.2890   -0.2410   -2.1950 ca        1 CZP     -0.078000
     28 C13        13.4600    0.5080   -2.2170 ca        1 CZP     -0.186500
     29 C14        14.4250    0.2950   -1.2190 ca        1 CZP      0.127100
     30 O17        15.5640    1.0640   -1.2910 oh        1 CZP     -0.498100
     31 C15        14.2170   -0.6590   -0.2120 ca        1 CZP     -0.186500
     32 C16        13.0390   -1.3990   -0.2090 ca        1 CZP     -0.078000
     33 O1          9.8030   -2.1570    2.2050 oh        1 CZP     -0.386000
     34 H25        -0.5440    0.1090    0.5220 ho        1 CZP      0.421000
     35 H23         1.2720    0.8430    1.7230 ha        1 CZP      0.146000
     36 H24         3.7570    0.8970    1.7940 ha        1 CZP      0.144000
     37 H21         1.4140   -1.3460   -2.0180 ha        1 CZP      0.146000
     38 H20         3.9170   -1.2770   -1.9510 ha        1 CZP      0.144000
     39 HN7         5.5630    1.8430    0.1820 hn        1 CZP      0.398800
     40 H8          7.9490    1.8250    0.8840 h1        1 CZP      0.099700
     41 H261        7.1770    1.5140   -2.1140 hc        1 CZP      0.064700
     42 H262        8.8470    1.9070   -1.5330 hc        1 CZP      0.064700
     43 H27         6.3070    3.5410   -0.8460 hc        1 CZP      0.042700
     44 H281        7.7730    4.2860    0.8130 hc        1 CZP      0.045200
     45 H282        9.2440    3.7140   -0.0610 hc        1 CZP      0.045200
     46 H291        9.5400    5.9110   -0.7240 hc        1 CZP      0.042950
     47 H292        7.8800    6.3770   -0.2030 hc        1 CZP      0.042950
     48 H301        7.1490    6.3010   -2.3830 hc        1 CZP      0.042950
     49 H302        8.8130    5.8750   -2.9250 hc        1 CZP      0.042950
     50 H311        6.5590    4.1530   -3.0800 hc        1 CZP      0.045200
     51 H312        8.2830    3.6280   -3.1580 hc        1 CZP      0.045200
     52 H5          5.6860   -2.2590   -0.5950 h4        1 CZP      0.182000
     53 H101       10.2710   -1.8750   -2.1690 hc        1 CZP      0.074700
     54 H102       11.0940   -3.1100   -1.1190 hc        1 CZP      0.074700
     55 H12        11.5290   -0.0760   -2.9750 ha        1 CZP      0.138500
     56 H13        13.6420    1.2610   -2.9970 ha        1 CZP      0.141500
     57 H17        16.1360    0.8190   -0.5490 ho        1 CZP      0.419000
     58 H15        14.9760   -0.8180    0.5660 ha        1 CZP      0.141500
     59 H16        12.8590   -2.1450    0.5820 ha        1 CZP      0.138500
     60 HO1        10.1720   -1.3640    2.6620 ho        1 CZP      0.409000
@<TRIPOS>BOND
     1    1    2 1   
     2    1   34 1   
     3    2    3 ar  
     4    2    5 ar  
     5    3    4 ar  
     6    3   35 1   
     7    4    7 ar  
     8    4   36 1   
     9    5    6 ar  
    10    5   37 1   
    11    6    7 ar  
    12    6   38 1   
    13    7    8 1   
    14    8    9 1   
    15    8   19 2   
    16    9   10 1   
    17    9   39 1   
    18   10   11 1   
    19   10   17 1   
    20   10   40 1   
    21   11   12 1   
    22   11   41 1   
    23   11   42 1   
    24   12   13 1   
    25   12   16 1   
    26   12   43 1   
    27   13   14 1   
    28   13   44 1   
    29   13   45 1   
    30   14   15 1   
    31   14   46 1   
    32   14   47 1   
    33   15   16 1   
    34   15   48 1   
    35   15   49 1   
    36   16   50 1   
    37   16   51 1   
    38   17   18 1   
    39   17   20 2   
    40   18   19 1   
    41   18   22 1   
    42   19   52 1   
    43   20   21 1   
    44   21   22 1   
    45   21   24 1   
    46   21   25 1   
    47   22   23 2   
    48   24   33 1   
    49   25   26 1   
    50   25   53 1   
    51   25   54 1   
    52   26   27 ar  
    53   26   32 ar  
    54   27   28 ar  
    55   27   55 1   
    56   28   29 ar  
    57   28   56 1   
    58   29   30 1   
    59   29   31 ar  
    60   30   57 1   
    61   31   32 ar  
    62   31   58 1   
    63   32   59 1   
    64   33   60 1   
@<TRIPOS>SUBSTRUCTURE
     1 CZP         1 TEMP              0 ****  ****    0 ROOT
