@<TRIPOS>MOLECULE
700
   50    53     1     0     0
SMALL
bcc


@<TRIPOS>ATOM
      1 C10        -0.5680   -0.2270   -0.1360 c3        1 700     -0.095100
      2 C11        -1.5000    0.5730   -0.9690 ca        1 700     -0.117300
      3 C12        -2.3310   -0.0280   -1.9220 ca        1 700     -0.128000
      4 C13        -3.1960    0.7510   -2.6880 ca        1 700     -0.125000
      5 C14        -3.2440    2.1330   -2.4970 ca        1 700     -0.118000
      6 C15        -2.4410    2.7310   -1.5270 ca        1 700     -0.125000
      7 C16        -1.5730    1.9560   -0.7580 ca        1 700     -0.128000
      8 C17         0.7690   -0.4750   -0.8510 c3        1 700      0.042500
      9 C18         1.7550   -0.9780    0.2350 c         1 700      0.643100
     10 O2          1.7610   -2.2110    0.4760 o         1 700     -0.665100
     11 N3          2.5900   -0.0790    0.8280 n         1 700     -0.400800
     12 C19         2.7990   -0.0410    2.3020 cy        1 700      0.065000
     13 C20         2.5090    1.4840    2.2740 cy        1 700     -0.215700
     14 C21         1.1280    1.8300    2.8680 c         1 700      0.921600
     15 O3          0.1470    1.8660    2.0590 o         1 700     -0.821300
     16 O4          1.0530    2.0420    4.0990 o         1 700     -0.821300
     17 C22         2.4590    1.3940    0.7280 cy        1 700      0.065000
     18 N1          0.6150   -1.4990   -1.9470 ny        1 700     -0.670800
     19 C9          1.7030   -1.4160   -2.9840 c         1 700      0.586300
     20 C8          2.7620   -2.3980   -2.9610 cc        1 700     -0.224300
     21 C7          3.6580   -2.5820   -4.0350 cd        1 700     -0.008200
     22 C6          4.5370   -3.6500   -3.6660 ca        1 700     -0.137800
     23 C1          4.1360   -4.0790   -2.3430 ca        1 700      0.005800
     24 C2          4.8250   -5.1170   -1.6820 ca        1 700     -0.140000
     25 C3          5.8820   -5.7120   -2.3410 ca        1 700     -0.067000
     26 C4          6.2690   -5.2990   -3.6420 ca        1 700     -0.012600
     27 Cl1         7.5780   -6.0870   -4.3840 cl        1 700     -0.072400
     28 C5          5.6130   -4.2790   -4.3100 ca        1 700     -0.053000
     29 N2          3.0210   -3.3460   -1.9440 na        1 700     -0.162400
     30 O1          1.5690   -0.5170   -3.8120 o         1 700     -0.457100
     31 H101       -0.3360    0.3530    0.8240 hc        1 700      0.132700
     32 H102       -1.0310   -1.1990    0.1770 hc        1 700      0.132700
     33 H121       -2.3480   -1.1220   -2.0380 ha        1 700      0.152000
     34 H131       -3.8490    0.2760   -3.4340 ha        1 700      0.139000
     35 H141       -3.9280    2.7470   -3.1020 ha        1 700      0.137000
     36 H151       -2.4980    3.8170   -1.3540 ha        1 700      0.139000
     37 H161       -0.9620    2.4140    0.0480 ha        1 700      0.152000
     38 H171        1.1260    0.4760   -1.3460 hx        1 700      0.130700
     39 H191        3.8460   -0.3270    2.5600 h1        1 700      0.074200
     40 H192        2.0700   -0.6550    2.8830 h1        1 700      0.074200
     41 H201        3.3070    2.1220    2.6990 hc        1 700      0.086700
     42 H221        1.4970    1.7730    0.2990 h1        1 700      0.074200
     43 H222        3.3370    1.8210    0.1890 h1        1 700      0.074200
     44 HN1        -0.2880   -1.3090   -2.4090 hn        1 700      0.467300
     45 H7          3.6610   -2.0180   -4.9680 ha        1 700      0.183000
     46 H2          4.5280   -5.4380   -0.6730 ha        1 700      0.160000
     47 H3          6.4430   -6.5250   -1.8500 ha        1 700      0.161000
     48 H5          5.9160   -3.9600   -5.3190 ha        1 700      0.161000
     49 HN2         2.7500   -3.2420   -0.9910 hn        1 700      0.337700
     50 H12         0.5830   -2.4300   -1.5120 hn        1 700      0.467300
@<TRIPOS>BOND
     1    1    2 1   
     2    1    8 1   
     3    1   31 1   
     4    1   32 1   
     5    2    3 ar  
     6    2    7 ar  
     7    3    4 ar  
     8    3   33 1   
     9    4    5 ar  
    10    4   34 1   
    11    5    6 ar  
    12    5   35 1   
    13    6    7 ar  
    14    6   36 1   
    15    7   37 1   
    16    8    9 1   
    17    8   18 1   
    18    8   38 1   
    19    9   10 2   
    20    9   11 1   
    21   11   12 1   
    22   11   17 1   
    23   12   13 1   
    24   12   39 1   
    25   12   40 1   
    26   13   14 1   
    27   13   17 1   
    28   13   41 1   
    29   14   15 1   
    30   14   16 1   
    31   17   42 1   
    32   17   43 1   
    33   18   19 1   
    34   18   44 1   
    35   18   50 1   
    36   19   20 1   
    37   19   30 2   
    38   20   21 2   
    39   20   29 1   
    40   21   22 1   
    41   21   45 1   
    42   22   23 ar  
    43   22   28 ar  
    44   23   24 ar  
    45   23   29 1   
    46   24   25 ar  
    47   24   46 1   
    48   25   26 ar  
    49   25   47 1   
    50   26   27 1   
    51   26   28 ar  
    52   28   48 1   
    53   29   49 1   
@<TRIPOS>SUBSTRUCTURE
     1 700         1 TEMP              0 ****  ****    0 ROOT
