@<TRIPOS>MOLECULE
700
   49    44     1     0     0
SMALL
bcc


@<TRIPOS>ATOM
      1 C10        -2.7280    0.5730    0.5380 c3        1 700     -0.127000
      2 C11        -3.2060    1.3070   -0.7640 c2        1 700     -0.058000
      3 C12        -3.9580    0.6300   -1.7010 c2        1 700     -0.137000
      4 C13        -4.4090    1.2900   -2.8570 c1        1 700     -0.138000
      5 C14        -4.1040    2.6180   -3.0680 c1        1 700     -0.135000
      6 C15        -3.3550    3.3100   -2.1450 c1        1 700     -0.135000
      7 C16        -2.8930    2.6460   -0.9670 c1        1 700     -0.119000
      8 C17        -1.1500    0.6300    0.5880 c3        1 700     -0.008000
      9 C18        -0.6450    0.7170    2.0560 c2        1 700      0.275000
     10 O2         -0.6980   -0.2570    2.7680 o         1 700     -0.414000
     11 N3          0.1120    1.8790    2.4720 n         1 700     -0.311000
     12 C19         0.8840    2.2170    3.6140 cy        1 700     -0.029500
     13 C20         1.0610    3.5690    3.1360 cy        1 700     -0.195000
     14 C21         1.0690    3.5700    3.1350 c2        1 700      0.338000
     15 O3          1.4930    4.6090    2.5400 o         1 700     -0.564500
     16 O4          1.9600    2.7050    3.7090 o         1 700     -0.564500
     17 C22         0.3730    3.1410    1.9190 cy        1 700     -0.029500
     18 N1         -0.6410   -0.5090    0.0120 n         1 700     -0.344000
     19 C9          0.6180   -0.4770   -0.6500 c2        1 700      0.359000
     20 C8          1.4920   -1.8060   -0.7710 c2        1 700     -0.070000
     21 C7          2.7400   -1.9190   -1.4080 c1        1 700     -0.123000
     22 C6          3.0600   -3.2390   -1.4770 c1        1 700     -0.094000
     23 C1          1.9930   -3.9800   -0.8740 c1        1 700      0.013000
     24 C2          2.1270   -5.4120   -0.6680 c1        1 700     -0.141000
     25 C3          3.2920   -6.0640   -1.0580 c1        1 700     -0.105000
     26 C4          4.3430   -5.3290   -1.6530 c1        1 700     -0.097000
     27 CL1         5.5950   -5.9490   -2.5310 cl        1 700     -0.038000
     28 C5          4.2110   -3.8850   -1.8610 c2        1 700     -0.063000
     29 N2          1.0490   -3.0920   -0.4500 n1        1 700     -0.196000
     30 O1          1.0340    0.6010   -1.1530 o         1 700     -0.348000
     31 H101       -3.0310   -0.3830    0.5080 hc        1 700      0.104500
     32 H102       -3.0890    0.9850    1.2910 hc        1 700      0.104500
     33 H121       -4.0410   -0.4350   -1.6390 ha        1 700      0.126000
     34 H131       -4.9020    0.7860   -3.5440 ha        1 700      0.120000
     35 H141       -4.5320    3.1250   -3.8890 ha        1 700      0.126000
     36 H151       -3.0880    4.1270   -2.3220 ha        1 700      0.126000
     37 H161       -2.6540    3.4160   -0.4700 ha        1 700      0.160000
     38 H171       -0.8120    1.4950    0.0480 h1        1 700      0.145000
     39 H191        1.7360    1.7220    3.6610 h1        1 700      0.098500
     40 H192        0.3630    2.1720    4.4240 h1        1 700      0.098500
     41 H201        0.6830    4.4790    3.5210 hc        1 700      0.097000
     42 H221       -0.3820    3.6090    1.7590 h1        1 700      0.098500
     43 H222        0.9490    3.1010    1.1880 h1        1 700      0.098500
     44 HN1        -1.1160   -1.3470    0.1030 hn        1 700      0.236000
     45 H7          3.3130   -1.1510   -1.7380 DU        1 700      0.218000
     46 H2          1.2680   -6.0010   -0.1820 ha        1 700      0.137000
     47 H3          3.4690   -7.0990   -0.7420 ha        1 700      0.140000
     48 H5          4.9250   -3.3910   -2.2700 ha        1 700      0.151000
     49 HN2         0.2240   -3.3040   -0.1390 DU        1 700      0.218000
@<TRIPOS>BOND
     1    1    2 1   
     2    1    8 1   
     3    1   31 1   
     4    1   32 1   
     5    2    3 1   
     6    2    7 1   
     7    3    4 1   
     8    3   33 1   
     9    4   34 1   
    10    5    6 1   
    11    5   35 1   
    12    6   36 1   
    13    7   37 1   
    14    8    9 1   
    15    8   18 1   
    16    8   38 1   
    17    9   10 1   
    18    9   11 1   
    19   11   12 1   
    20   11   17 1   
    21   12   13 1   
    22   12   39 1   
    23   12   40 1   
    24   13   14 1   
    25   13   17 1   
    26   13   41 1   
    27   14   15 1   
    28   14   16 1   
    29   17   42 1   
    30   17   43 1   
    31   18   19 1   
    32   18   44 1   
    33   19   20 1   
    34   19   30 1   
    35   20   21 1   
    36   20   29 1   
    37   21   22 1   
    38   22   28 1   
    39   23   24 1   
    40   24   46 1   
    41   25   26 1   
    42   25   47 1   
    43   26   28 1   
    44   28   48 1   
@<TRIPOS>SUBSTRUCTURE
     1 700         1 TEMP              0 ****  ****    0 ROOT
