@<TRIPOS>MOLECULE
700
   50    53     1     0     0
SMALL
bcc


@<TRIPOS>ATOM
      1 C10        -0.5790   -0.2220   -0.1500 c3        1 700     -0.095100
      2 C11        -1.4990    0.5910   -0.9840 ca        1 700     -0.117300
      3 C12        -2.3240    0.0040   -1.9510 ca        1 700     -0.128000
      4 C13        -3.1770    0.7950   -2.7170 ca        1 700     -0.125000
      5 C14        -3.2200    2.1750   -2.5130 ca        1 700     -0.118000
      6 C15        -2.4220    2.7600   -1.5290 ca        1 700     -0.125000
      7 C16        -1.5650    1.9730   -0.7600 ca        1 700     -0.128000
      8 C17         0.7640   -0.4710   -0.8550 c3        1 700      0.042500
      9 C18         1.7370   -0.9900    0.2350 c         1 700      0.643100
     10 O2          1.7340   -2.2250    0.4640 o         1 700     -0.665100
     11 N3          2.5720   -0.1010    0.8430 n         1 700     -0.400800
     12 C19         2.7670   -0.0780    2.3190 cy        1 700      0.065000
     13 C20         2.4860    1.4490    2.3040 cy        1 700     -0.215700
     14 C21         1.1020    1.7970    2.8890 c         1 700      0.921600
     15 O3          0.1280    1.8450    2.0710 o         1 700     -0.821300
     16 O4          1.0160    1.9980    4.1210 o         1 700     -0.821300
     17 C22         2.4490    1.3730    0.7560 cy        1 700      0.065000
     18 N1          0.6140   -1.4840   -1.9630 n4        1 700     -0.670800
     19 C9          1.7120   -1.3970   -2.9890 c         1 700      0.586300
     20 C8          2.7650   -2.3850   -2.9650 cc        1 700     -0.224300
     21 C7          3.6700   -2.5640   -4.0330 cd        1 700     -0.008200
     22 C6          4.5410   -3.6400   -3.6660 ca        1 700     -0.137800
     23 C1          4.1250   -4.0790   -2.3510 ca        1 700      0.005800
     24 C2          4.8020   -5.1280   -1.6940 ca        1 700     -0.140000
     25 C3          5.8620   -5.7210   -2.3480 ca        1 700     -0.067000
     26 C4          6.2630   -5.2980   -3.6420 ca        1 700     -0.012600
     27 CL1         7.5740   -6.0860   -4.3790 cl        1 700     -0.072400
     28 C5          5.6190   -4.2680   -4.3060 ca        1 700     -0.053000
     29 N2          3.0100   -3.3440   -1.9560 na        1 700     -0.162400
     30 O1          1.5910   -0.4890   -3.8100 o         1 700     -0.457100
     31 H101       -0.3520    0.3470    0.8170 hc        1 700      0.132700
     32 H102       -1.0500   -1.1950    0.1490 hc        1 700      0.132700
     33 H121       -2.3450   -1.0890   -2.0780 ha        1 700      0.152000
     34 H131       -3.8260    0.3310   -3.4730 ha        1 700      0.139000
     35 H141       -3.8950    2.7990   -3.1180 ha        1 700      0.137000
     36 H151       -2.4750    3.8440   -1.3470 ha        1 700      0.139000
     37 H161       -0.9600    2.4190    0.0560 ha        1 700      0.152000
     38 H171        1.1300    0.4820   -1.3380 hx        1 700      0.130700
     39 H191        3.8100   -0.3710    2.5840 h1        1 700      0.074200
     40 H192        2.0300   -0.6930    2.8880 h1        1 700      0.074200
     41 H201        3.2840    2.0790    2.7420 hc        1 700      0.086700
     42 H221        3.3350    1.8010    0.2290 h1        1 700      0.074200
     43 H222        1.4930    1.7620    0.3220 h1        1 700      0.074200
     44 HN1         0.5740   -2.4190   -1.5370 hn        1 700      0.467300
     45 H7          3.6850   -1.9910   -4.9600 ha        1 700      0.183000
     46 H2          4.4940   -5.4560   -0.6900 ha        1 700      0.160000
     47 H3          6.4140   -6.5420   -1.8600 ha        1 700      0.161000
     48 H5          5.9330   -3.9410   -5.3090 ha        1 700      0.161000
     49 HN2         2.7310   -3.2480   -1.0040 hn        1 700      0.337700
     50 H12        -0.2840   -1.2840   -2.4310 hn        1 700      0.467300
@<TRIPOS>BOND
     1    1    2 1   
     2    1    8 1   
     3    1   31 1   
     4    1   32 1   
     5    2    3 ar  
     6    2    7 ar  
     7    3    4 ar  
     8    3   33 1   
     9    4    5 ar  
    10    4   34 1   
    11    5    6 ar  
    12    5   35 1   
    13    6    7 ar  
    14    6   36 1   
    15    7   37 1   
    16    8    9 1   
    17    8   18 1   
    18    8   38 1   
    19    9   10 2   
    20    9   11 1   
    21   11   12 1   
    22   11   17 1   
    23   12   13 1   
    24   12   39 1   
    25   12   40 1   
    26   13   14 1   
    27   13   17 1   
    28   13   41 1   
    29   14   15 1   
    30   14   16 1   
    31   17   42 1   
    32   17   43 1   
    33   18   19 1   
    34   18   44 1   
    35   18   50 1   
    36   19   20 1   
    37   19   30 2   
    38   20   21 2   
    39   20   29 1   
    40   21   22 1   
    41   21   45 1   
    42   22   23 ar  
    43   22   28 ar  
    44   23   24 ar  
    45   23   29 1   
    46   24   25 ar  
    47   24   46 1   
    48   25   26 ar  
    49   25   47 1   
    50   26   27 1   
    51   26   28 ar  
    52   28   48 1   
    53   29   49 1   
@<TRIPOS>SUBSTRUCTURE
     1 700         1 TEMP              0 ****  ****    0 ROOT
