@<TRIPOS>MOLECULE
700
   49    52     1     0     0
SMALL
bcc


@<TRIPOS>ATOM
      1 C10         1.4240    1.2170    1.8030 c3        1 700     -0.059100
      2 C11         2.8030    0.8610    2.2330 ca        1 700     -0.085300
      3 C12         3.8030    0.5630    1.3010 ca        1 700     -0.121000
      4 C13         5.0950    0.2620    1.7290 ca        1 700     -0.145000
      5 C14         5.3980    0.2600    3.0900 ca        1 700     -0.142000
      6 C15         4.4050    0.5570    4.0230 ca        1 700     -0.145000
      7 C16         3.1100    0.8560    3.6020 ca        1 700     -0.121000
      8 C17         0.7570    0.0900    0.9860 c3        1 700      0.009700
      9 C18        -0.7340    0.0340    1.4320 c         1 700      0.625100
     10 O2         -1.6110    0.5960    0.7300 o         1 700     -0.679100
     11 N3         -1.0670   -0.7040    2.5410 n         1 700     -0.418800
     12 C19        -2.1030   -0.2740    3.5070 cy        1 700      0.070500
     13 C20        -1.1390   -0.6290    4.6720 cy        1 700     -0.215700
     14 C21        -0.6490    0.6030    5.4470 c         1 700      0.919600
     15 O3         -1.1070    0.7920    6.6040 o         1 700     -0.836800
     16 O4          0.1920    1.3620    4.8770 o         1 700     -0.836800
     17 C22        -0.1260   -1.1140    3.6020 cy        1 700      0.070500
     18 N1          0.8630    0.3110   -0.4470 n         1 700     -0.511900
     19 C9          0.6070   -0.7660   -1.3080 c         1 700      0.673300
     20 C8         -0.2880   -0.4930   -2.4660 cc        1 700     -0.131300
     21 C7         -0.1230   -0.8760   -3.7990 cd        1 700     -0.130200
     22 C6         -1.2840   -0.4090   -4.5140 ca        1 700     -0.110800
     23 C1         -2.1320    0.2510   -3.5400 ca        1 700     -0.032200
     24 C2         -3.3640    0.8150   -3.9210 ca        1 700     -0.132000
     25 C3         -3.7370    0.7250   -5.2490 ca        1 700     -0.110000
     26 C4         -2.9080    0.0860   -6.1970 ca        1 700     -0.018600
     27 CL1        -3.4330    0.0150   -7.8200 cl        1 700     -0.123400
     28 C5         -1.6900   -0.4810   -5.8490 ca        1 700     -0.070000
     29 N2         -1.4940    0.2110   -2.3060 na        1 700     -0.164400
     30 O1          1.1340   -1.8800   -1.1580 o         1 700     -0.554100
     31 H101        1.4600    2.1680    1.2070 hc        1 700      0.094700
     32 H102        0.7950    1.4330    2.7210 hc        1 700      0.094700
     33 H121        3.5650    0.5600    0.2270 ha        1 700      0.169500
     34 H131        5.8740    0.0250    0.9910 ha        1 700      0.122000
     35 H141        6.4170    0.0220    3.4270 ha        1 700      0.114000
     36 H151        4.6380    0.5550    5.0980 ha        1 700      0.122000
     37 H161        2.3140    1.0920    4.3400 ha        1 700      0.169500
     38 H171        1.2580   -0.8960    1.2170 h1        1 700      0.106700
     39 H191       -3.0170   -0.9100    3.4300 h1        1 700      0.060200
     40 H192       -2.3730    0.8060    3.4330 h1        1 700      0.060200
     41 H201       -1.5140   -1.4150    5.3580 hc        1 700      0.065700
     42 H221        0.8470   -0.5610    3.6200 h1        1 700      0.060200
     43 H222        0.0490   -2.2160    3.5680 h1        1 700      0.060200
     44 HN1         0.4330    1.1740   -0.7200 hn        1 700      0.291500
     45 H7          0.7160   -1.4250   -4.2130 ha        1 700      0.165000
     46 H2         -4.0080    1.3100   -3.1820 ha        1 700      0.144000
     47 H3         -4.6960    1.1560   -5.5760 ha        1 700      0.140000
     48 H5         -1.0530   -0.9770   -6.5950 ha        1 700      0.145000
     49 HN2        -1.8820    0.4800   -1.4290 hn        1 700      0.342700
@<TRIPOS>BOND
     1    1    2 1   
     2    1    8 1   
     3    1   31 1   
     4    1   32 1   
     5    2    3 ar  
     6    2    7 ar  
     7    3    4 ar  
     8    3   33 1   
     9    4    5 ar  
    10    4   34 1   
    11    5    6 ar  
    12    5   35 1   
    13    6    7 ar  
    14    6   36 1   
    15    7   37 1   
    16    8    9 1   
    17    8   18 1   
    18    8   38 1   
    19    9   10 2   
    20    9   11 1   
    21   11   12 1   
    22   11   17 1   
    23   12   13 1   
    24   12   39 1   
    25   12   40 1   
    26   13   14 1   
    27   13   17 1   
    28   13   41 1   
    29   14   15 1   
    30   14   16 1   
    31   17   42 1   
    32   17   43 1   
    33   18   19 1   
    34   18   44 1   
    35   19   20 1   
    36   19   30 2   
    37   20   21 2   
    38   20   29 1   
    39   21   22 1   
    40   21   45 1   
    41   22   23 ar  
    42   22   28 ar  
    43   23   24 ar  
    44   23   29 1   
    45   24   25 ar  
    46   24   46 1   
    47   25   26 ar  
    48   25   47 1   
    49   26   27 1   
    50   26   28 ar  
    51   28   48 1   
    52   29   49 1   
@<TRIPOS>SUBSTRUCTURE
     1 700         1 TEMP              0 ****  ****    0 ROOT
