@<TRIPOS>MOLECULE
700
   50    53     1     0     0
SMALL
bcc


@<TRIPOS>ATOM
      1 C10        -0.5530   -0.2140   -0.1070 c3        1 700     -0.095100
      2 C11        -1.5060    0.5630   -0.9380 ca        1 700     -0.117300
      3 C12        -2.3560   -0.0620   -1.8580 ca        1 700     -0.128000
      4 C13        -3.2400    0.6970   -2.6220 ca        1 700     -0.125000
      5 C14        -3.2890    2.0820   -2.4620 ca        1 700     -0.118000
      6 C15        -2.4670    2.7050   -1.5240 ca        1 700     -0.125000
      7 C16        -1.5790    1.9510   -0.7570 ca        1 700     -0.128000
      8 C17         0.7680   -0.4750   -0.8450 c3        1 700      0.042500
      9 C18         1.7800   -0.9490    0.2300 c         1 700      0.643100
     10 O2          1.7970   -2.1760    0.4990 o         1 700     -0.665100
     11 N3          2.6250   -0.0340    0.7820 n         1 700     -0.400800
     12 C19         2.8660    0.0400    2.2500 cy        1 700      0.065000
     13 C20         2.5700    1.5620    2.1930 cy        1 700     -0.215700
     14 C21         1.2020    1.9180    2.8090 c         1 700      0.921600
     15 O3          0.2030    1.9320    2.0220 o         1 700     -0.821300
     16 O4          1.1530    2.1590    4.0370 o         1 700     -0.821300
     17 C22         2.4860    1.4360    0.6510 cy        1 700      0.065000
     18 N1          0.5940   -1.5250   -1.9140 n4        1 700     -0.670800
     19 C9          1.6580   -1.4630   -2.9770 c         1 700      0.586300
     20 C8          2.7200   -2.4410   -2.9540 cc        1 700     -0.224300
     21 C7          3.5930   -2.6470   -4.0440 cd        1 700     -0.008200
     22 C6          4.4840   -3.7040   -3.6700 ca        1 700     -0.137800
     23 C1          4.1140   -4.1020   -2.3290 ca        1 700      0.005800
     24 C2          4.8220   -5.1230   -1.6590 ca        1 700     -0.140000
     25 C3          5.8660   -5.7290   -2.3280 ca        1 700     -0.067000
     26 C4          6.2220   -5.3460   -3.6460 ca        1 700     -0.012600
     27 CL1         7.5170   -6.1470   -4.3990 cl        1 700     -0.072400
     28 C5          5.5470   -4.3440   -4.3230 ca        1 700     -0.053000
     29 N2          3.0060   -3.3640   -1.9220 na        1 700     -0.162400
     30 O1          1.5030   -0.5840   -3.8230 o         1 700     -0.457100
     31 H101       -0.3010    0.3890    0.8340 hc        1 700      0.132700
     32 H102       -1.0060   -1.1800    0.2380 hc        1 700      0.132700
     33 H121       -2.3710   -1.1590   -1.9480 ha        1 700      0.152000
     34 H131       -3.9080    0.2020   -3.3420 ha        1 700      0.139000
     35 H141       -3.9890    2.6790   -3.0660 ha        1 700      0.137000
     36 H151       -2.5250    3.7940   -1.3750 ha        1 700      0.139000
     37 H161       -0.9520    2.4290    0.0250 ha        1 700      0.152000
     38 H171        1.1110    0.4650   -1.3710 hx        1 700      0.130700
     39 H191        2.1530   -0.5630    2.8610 h1        1 700      0.074200
     40 H192        3.9200   -0.2360    2.4910 h1        1 700      0.074200
     41 H201        3.3760    2.2130    2.5850 hc        1 700      0.086700
     42 H221        1.5130    1.8020    0.2340 h1        1 700      0.074200
     43 H222        3.3510    1.8530    0.0820 h1        1 700      0.074200
     44 HN1         0.5760   -2.4460   -1.4560 hn        1 700      0.467300
     45 H7          3.5730   -2.1060   -4.9900 ha        1 700      0.183000
     46 H2          4.5490   -5.4200   -0.6360 ha        1 700      0.160000
     47 H3          6.4410   -6.5290   -1.8310 ha        1 700      0.161000
     48 H5          5.8270   -4.0480   -5.3460 ha        1 700      0.161000
     49 HN2         2.7560   -3.2380   -0.9650 hn        1 700      0.337700
     50 H12        -0.3200   -1.3490   -2.3590 hn        1 700      0.467300
@<TRIPOS>BOND
     1    1    2 1   
     2    1    8 1   
     3    1   31 1   
     4    1   32 1   
     5    2    3 ar  
     6    2    7 ar  
     7    3    4 ar  
     8    3   33 1   
     9    4    5 ar  
    10    4   34 1   
    11    5    6 ar  
    12    5   35 1   
    13    6    7 ar  
    14    6   36 1   
    15    7   37 1   
    16    8    9 1   
    17    8   18 1   
    18    8   38 1   
    19    9   10 2   
    20    9   11 1   
    21   11   12 1   
    22   11   17 1   
    23   12   13 1   
    24   12   39 1   
    25   12   40 1   
    26   13   14 1   
    27   13   17 1   
    28   13   41 1   
    29   14   15 1   
    30   14   16 1   
    31   17   42 1   
    32   17   43 1   
    33   18   19 1   
    34   18   44 1   
    35   18   50 1   
    36   19   20 1   
    37   19   30 2   
    38   20   21 2   
    39   20   29 1   
    40   21   22 1   
    41   21   45 1   
    42   22   23 ar  
    43   22   28 ar  
    44   23   24 ar  
    45   23   29 1   
    46   24   25 ar  
    47   24   46 1   
    48   25   26 ar  
    49   25   47 1   
    50   26   27 1   
    51   26   28 ar  
    52   28   48 1   
    53   29   49 1   
@<TRIPOS>SUBSTRUCTURE
     1 700         1 TEMP              0 ****  ****    0 ROOT
