@<TRIPOS>MOLECULE
701
   53    55     1     0     0
SMALL
bcc


@<TRIPOS>ATOM
      1 CL1        -7.3520   -2.5220    0.1810 cl        1 701     -0.024400
      2 C1         -6.7460   -3.8710    0.9610 cc        1 701     -0.045700
      3 C2         -7.5110   -4.9610    1.3600 cd        1 701     -0.163000
      4 C3         -6.7110   -5.9430    1.9980 cd        1 701     -0.113000
      5 C4         -5.3710   -5.5670    2.0580 cc        1 701     -0.166900
      6 C9         -4.3010   -6.3440    2.6460 ce        1 701      0.223600
      7 C8         -4.7260   -7.5930    3.3280 c3        1 701     -0.115900
      8 S1         -1.6050   -6.5360    3.1670 sy        1 701      1.532800
      9 O2         -1.1210   -5.6730    4.1720 o         1 701     -0.661300
     10 O1         -1.7530   -7.8920    3.5320 o         1 701     -0.661300
     11 N1         -0.5980   -6.4790    1.8820 n3        1 701     -0.892100
     12 C12         0.2490   -5.3750    1.5700 c3        1 701      0.168500
     13 C13         1.6880   -5.7450    1.1390 c3        1 701     -0.099400
     14 C14         1.9290   -5.0320   -0.2010 c3        1 701      0.071000
     15 C15        -0.2890   -4.5090    0.3910 c         1 701      0.678500
     16 O3         -1.4230   -4.0100    0.3630 o         1 701     -0.621500
     17 N2          0.6670   -4.4410   -0.6300 n         1 701     -0.441800
     18 C16         0.7160   -3.4170   -1.6460 c3        1 701      0.061700
     19 C17        -0.6610   -2.9610   -2.1280 c3        1 701     -0.102100
     20 C18         1.5050   -2.1540   -1.2040 c         1 701      0.629100
     21 O4          1.6720   -1.8950    0.0050 o         1 701     -0.606100
     22 N3          2.0490   -1.3130   -2.1600 n         1 701     -0.474800
     23 C19         1.8540   -1.4440   -3.5830 c3        1 701      0.057500
     24 C20         3.1060   -1.0560   -4.3890 c3        1 701      0.112900
     25 O5          3.6170    0.2110   -3.9980 os        1 701     -0.408600
     26 C22         3.9150    0.2640   -2.6060 c3        1 701      0.112900
     27 C23         2.6910   -0.0790   -1.7490 c3        1 701      0.057500
     28 S6         -5.1370   -4.0640    1.3520 ss        1 701      0.167200
     29 C6         -3.0200   -5.9230    2.5620 cf        1 701     -0.554100
     30 H2         -8.5880   -5.0590    1.2090 ha        1 701      0.167000
     31 H3         -7.1130   -6.8810    2.3890 ha        1 701      0.160000
     32 H8C1       -5.5110   -7.3590    4.0910 hc        1 701      0.075367
     33 H8C2       -5.1650   -8.2960    2.5750 hc        1 701      0.075367
     34 H8C3       -3.8780   -8.1140    3.8400 hc        1 701      0.075367
     35 H6         -2.8670   -4.9640    2.0090 h4        1 701      0.190000
     36 H1         -0.5570   -7.2230    1.2270 hn        1 701      0.446800
     37 H12         0.2940   -4.6870    2.4710 h1        1 701      0.116700
     38 H131        1.8230   -6.8480    1.0200 hc        1 701      0.068700
     39 H132        2.4160   -5.3890    1.9070 hc        1 701      0.068700
     40 H141        2.7190   -4.2380   -0.0850 h1        1 701      0.055200
     41 H142        2.2670   -5.7590   -0.9890 h1        1 701      0.055200
     42 H16         1.2730   -3.8980   -2.5090 h1        1 701      0.065700
     43 H171       -1.1900   -2.3860   -1.3290 hc        1 701      0.061033
     44 H172       -0.5400   -2.3130   -3.0290 hc        1 701      0.061033
     45 H173       -1.2910   -3.8420   -2.3970 hc        1 701      0.061033
     46 H191        1.0050   -0.7700   -3.9010 h1        1 701      0.060950
     47 H192        1.5850   -2.5000   -3.8560 h1        1 701      0.060950
     48 H231        3.0100   -0.1630   -0.6720 h1        1 701      0.060950
     49 H232        1.9430    0.7620   -1.8320 h1        1 701      0.060950
     50 H201        3.9050   -1.8350   -4.2780 h1        1 701      0.057700
     51 H202        2.8370   -0.9280   -5.4700 h1        1 701      0.057700
     52 H221        4.2210    1.3280   -2.4270 h1        1 701      0.057700
     53 H222        4.7690   -0.4260   -2.3790 h1        1 701      0.057700
@<TRIPOS>BOND
     1    1    2 1   
     2    2    3 2   
     3    2   28 1   
     4    3    4 1   
     5    3   30 1   
     6    4    5 2   
     7    4   31 1   
     8    5    6 1   
     9    5   28 1   
    10    6    7 1   
    11    6   29 2   
    12    7   32 1   
    13    7   33 1   
    14    7   34 1   
    15    8    9 2   
    16    8   10 2   
    17    8   11 1   
    18    8   29 1   
    19   11   12 1   
    20   11   36 1   
    21   12   13 1   
    22   12   15 1   
    23   12   37 1   
    24   13   14 1   
    25   13   38 1   
    26   13   39 1   
    27   14   17 1   
    28   14   40 1   
    29   14   41 1   
    30   15   16 2   
    31   15   17 1   
    32   17   18 1   
    33   18   19 1   
    34   18   20 1   
    35   18   42 1   
    36   19   43 1   
    37   19   44 1   
    38   19   45 1   
    39   20   21 2   
    40   20   22 1   
    41   22   23 1   
    42   22   27 1   
    43   23   24 1   
    44   23   46 1   
    45   23   47 1   
    46   24   25 1   
    47   24   50 1   
    48   24   51 1   
    49   25   26 1   
    50   26   27 1   
    51   26   52 1   
    52   26   53 1   
    53   27   48 1   
    54   27   49 1   
    55   29   35 1   
@<TRIPOS>SUBSTRUCTURE
     1 701         1 TEMP              0 ****  ****    0 ROOT
