@<TRIPOS>MOLECULE
701
   54    55     1     0     0
SMALL
bcc


@<TRIPOS>ATOM
      1 Cl1         2.9810   -1.3020    3.1550 cl        1 701      0.047600
      2 C1          3.5810   -1.4060    1.6090 cc        1 701      0.024300
      3 C2          3.7750   -2.6130    0.9220 cd        1 701     -0.184000
      4 C3          4.2830   -2.3980   -0.3710 cd        1 701     -0.014000
      5 C4          4.4730   -1.0250   -0.6430 cc        1 701     -0.247900
      6 C9          4.9670   -0.4730   -1.8450 ce        1 701      0.372600
      7 C8          5.3400    0.9650   -1.8300 c3        1 701     -0.152900
      8 S1          5.6390   -0.9390   -4.3880 s4        1 701      1.708100
      9 O2          5.2240   -1.7150   -5.4270 o         1 701     -0.464900
     10 O1          6.2700    0.2480   -4.6220 o         1 701     -0.464900
     11 N1          7.6610   -2.1290   -4.1460 n8        1 701     -0.982800
     12 C12         7.5300   -3.5240   -4.5500 c3        1 701      0.038500
     13 C13         8.8150   -4.2280   -5.0310 c3        1 701     -0.109400
     14 C14         8.7930   -5.6140   -4.3630 c3        1 701      0.064000
     15 C15         6.9990   -4.4350   -3.4060 c         1 701      0.709500
     16 O3          6.0530   -4.1040   -2.6750 o         1 701     -0.646500
     17 N2          7.7920   -5.5780   -3.2970 n         1 701     -0.412800
     18 C16         7.2780   -6.8530   -2.8280 c3        1 701      0.043700
     19 C17         6.5580   -6.7550   -1.4850 c3        1 701     -0.104100
     20 C18         6.3160   -7.5140   -3.8520 c         1 701      0.629100
     21 O4          5.7540   -6.8070   -4.7160 o         1 701     -0.621100
     22 N3          6.0970   -8.8730   -3.8150 n         1 701     -0.458800
     23 C19         6.6230   -9.7680   -2.8110 c3        1 701      0.053000
     24 C20         7.0000  -11.1460   -3.3840 c3        1 701      0.112900
     25 O5          5.9420  -11.7020   -4.1500 os        1 701     -0.398600
     26 C22         5.5490  -10.8500   -5.2210 c3        1 701      0.112900
     27 C23         5.1210   -9.4670   -4.7130 c3        1 701      0.053000
     28 S6          4.0210   -0.0940    0.6950 ss        1 701      0.173200
     29 C6          5.1090   -1.2250   -3.0020 c2        1 701     -0.847300
     30 H2          3.5540   -3.6010    1.3380 ha        1 701      0.193000
     31 H3          4.5270   -3.2130   -1.0670 ha        1 701      0.198000
     32 H8C1        4.7090    1.5470   -1.1090 hc        1 701      0.096367
     33 H8C2        6.4120    1.0610   -1.5060 hc        1 701      0.096367
     34 H8C3        5.2470    1.4420   -2.8390 hc        1 701      0.096367
     35 H6          4.7460   -2.2850   -2.8530 h4        1 701      0.262000
     36 H1          7.9710   -2.0680   -3.1900 hn        1 701      0.400800
     37 H12         6.7530   -3.5640   -5.3770 h1        1 701      0.136700
     38 H131        9.7380   -3.6710   -4.7350 hc        1 701      0.076700
     39 H132        8.8120   -4.3310   -6.1440 hc        1 701      0.076700
     40 H141        9.7900   -5.8550   -3.9020 h1        1 701      0.073700
     41 H142        8.5410   -6.4080   -5.1200 h1        1 701      0.073700
     42 H16         8.1970   -7.5060   -2.7090 h1        1 701      0.083700
     43 H171        5.6280   -6.1420   -1.5760 hc        1 701      0.062367
     44 H172        6.2850   -7.7820   -1.1410 hc        1 701      0.062367
     45 H173        7.2220   -6.2860   -0.7190 hc        1 701      0.062367
     46 H191        7.5400   -9.3340   -2.3270 h1        1 701      0.063700
     47 H192        5.8390   -9.9180   -2.0120 h1        1 701      0.063700
     48 H231        4.9600   -8.7870   -5.5960 h1        1 701      0.063700
     49 H232        4.1430   -9.5690   -4.1600 h1        1 701      0.063700
     50 H201        7.9260  -11.0720   -4.0120 h1        1 701      0.064450
     51 H202        7.1550  -11.8750   -2.5460 h1        1 701      0.064450
     52 H221        6.3870  -10.7640   -5.9620 h1        1 701      0.064450
     53 H222        4.6730  -11.3730   -5.6870 h1        1 701      0.064450
     54 H121        8.3380   -1.6670   -4.7330 hn        1 701      0.400800
@<TRIPOS>BOND
     1    1    2 1   
     2    2    3 2   
     3    2   28 1   
     4    3    4 1   
     5    3   30 1   
     6    4    5 2   
     7    4   31 1   
     8    5    6 1   
     9    5   28 1   
    10    6    7 1   
    11    6   29 2   
    12    7   32 1   
    13    7   33 1   
    14    7   34 1   
    15    8    9 1   
    16    8   10 1   
    17    8   29 1   
    18   11   12 1   
    19   11   36 1   
    20   11   54 1   
    21   12   13 1   
    22   12   15 1   
    23   12   37 1   
    24   13   14 1   
    25   13   38 1   
    26   13   39 1   
    27   14   17 1   
    28   14   40 1   
    29   14   41 1   
    30   15   16 2   
    31   15   17 1   
    32   17   18 1   
    33   18   19 1   
    34   18   20 1   
    35   18   42 1   
    36   19   43 1   
    37   19   44 1   
    38   19   45 1   
    39   20   21 2   
    40   20   22 1   
    41   22   23 1   
    42   22   27 1   
    43   23   24 1   
    44   23   46 1   
    45   23   47 1   
    46   24   25 1   
    47   24   50 1   
    48   24   51 1   
    49   25   26 1   
    50   26   27 1   
    51   26   52 1   
    52   26   53 1   
    53   27   48 1   
    54   27   49 1   
    55   29   35 1   
@<TRIPOS>SUBSTRUCTURE
     1 701         1 TEMP              0 ****  ****    0 ROOT
