@<TRIPOS>MOLECULE
701
   54    55     1     0     0
SMALL
bcc


@<TRIPOS>ATOM
      1 CL1         1.2540   -2.7610    1.7230 cl        1 701      0.046600
      2 C1          2.4490   -2.1970    0.7150 cc        1 701      0.011300
      3 C2          3.2790   -1.1070    1.0220 cd        1 701     -0.178000
      4 C3          4.1960   -0.8520   -0.0100 cd        1 701     -0.024000
      5 C4          4.0490   -1.7520   -1.0880 cc        1 701     -0.242900
      6 C9          4.8060   -1.7880   -2.2790 ce        1 701      0.395600
      7 C8          4.4720   -2.8420   -3.2650 c3        1 701     -0.175900
      8 S1          6.7370   -0.6490   -3.7240 s4        1 701      1.697100
      9 O2          6.4740   -1.2760   -4.9080 o         1 701     -0.466400
     10 O1          7.5750    0.4280   -3.6770 o         1 701     -0.466400
     11 N1          8.4890   -2.1150   -3.1390 n3        1 701     -0.985800
     12 C12         8.3030   -3.4420   -3.7070 c3        1 701      0.036500
     13 C13         9.5280   -4.1260   -4.3430 c3        1 701     -0.105400
     14 C14         9.3610   -5.6210   -4.0040 c3        1 701      0.065000
     15 C15         7.7860   -4.4850   -2.6780 c         1 701      0.697500
     16 O3          6.9860   -4.2010   -1.7770 o         1 701     -0.617500
     17 N2          8.4180   -5.7170   -2.8910 n         1 701     -0.416800
     18 C16         7.6950   -6.9610   -2.7040 c3        1 701      0.046700
     19 C17         7.3560   -7.2290   -1.2370 c3        1 701     -0.106100
     20 C18         6.3670   -6.9900   -3.5130 c         1 701      0.637100
     21 O4          5.8270   -5.9090   -3.8500 o         1 701     -0.657100
     22 N3          5.7960   -8.1890   -3.8660 n         1 701     -0.451800
     23 C19         6.2500   -9.4820   -3.4040 c3        1 701      0.052000
     24 C20         6.0900  -10.5810   -4.4690 c3        1 701      0.112400
     25 O5          4.7780  -10.5940   -5.0140 os        1 701     -0.396600
     26 C22         4.4260   -9.3420   -5.5920 c3        1 701      0.112400
     27 C23         4.5250   -8.2030   -4.5700 c3        1 701      0.052000
     28 S6          2.8030   -2.8480   -0.7630 ss        1 701      0.212200
     29 C6          5.8370   -0.8820   -2.5330 c2        1 701     -0.845300
     30 H2          3.2170   -0.5270    1.9490 ha        1 701      0.193000
     31 H3          4.9310   -0.0420    0.0350 ha        1 701      0.172000
     32 H8C1        4.6040   -2.4950   -4.3230 hc        1 701      0.112367
     33 H8C2        3.4190   -3.2080   -3.1500 hc        1 701      0.112367
     34 H8C3        5.1570   -3.7290   -3.1070 hc        1 701      0.112367
     35 H6          6.0080   -0.1940   -1.6650 h4        1 701      0.229000
     36 H1          8.5330   -2.1660   -2.1330 hn        1 701      0.406800
     37 H12         7.4920   -3.3550   -4.4980 h1        1 701      0.121700
     38 H131       10.4900   -3.7400   -3.9220 hc        1 701      0.078200
     39 H132        9.5420   -3.9730   -5.4490 hc        1 701      0.078200
     40 H141        8.9910   -6.1850   -4.9040 h1        1 701      0.070700
     41 H142       10.3380   -6.0690   -3.6760 h1        1 701      0.070700
     42 H16         8.3840   -7.7760   -3.0800 h1        1 701      0.085700
     43 H171        6.8290   -8.2100   -1.1550 hc        1 701      0.065033
     44 H172        8.2900   -7.2700   -0.6250 hc        1 701      0.065033
     45 H173        6.6970   -6.4230   -0.8290 hc        1 701      0.065033
     46 H191        5.6440   -9.7740   -2.4970 h1        1 701      0.063950
     47 H192        7.3330   -9.4450   -3.1070 h1        1 701      0.063950
     48 H231        3.6980   -8.3200   -3.8120 h1        1 701      0.063950
     49 H232        4.3820   -7.2210   -5.1030 h1        1 701      0.063950
     50 H201        6.8420  -10.4500   -5.2900 h1        1 701      0.066200
     51 H202        6.2070  -11.5900   -3.9920 h1        1 701      0.066200
     52 H221        3.3600   -9.4730   -5.9150 h1        1 701      0.066200
     53 H222        5.0780   -9.1390   -6.4820 h1        1 701      0.066200
     54 H121        9.3430   -1.7010   -3.4780 hn        1 701      0.406800
@<TRIPOS>BOND
     1    1    2 1   
     2    2    3 2   
     3    2   28 1   
     4    3    4 1   
     5    3   30 1   
     6    4    5 2   
     7    4   31 1   
     8    5    6 1   
     9    5   28 1   
    10    6    7 1   
    11    6   29 2   
    12    7   32 1   
    13    7   33 1   
    14    7   34 1   
    15    8    9 1   
    16    8   10 1   
    17    8   29 1   
    18   11   12 1   
    19   11   36 1   
    20   11   54 1   
    21   12   13 1   
    22   12   15 1   
    23   12   37 1   
    24   13   14 1   
    25   13   38 1   
    26   13   39 1   
    27   14   17 1   
    28   14   40 1   
    29   14   41 1   
    30   15   16 2   
    31   15   17 1   
    32   17   18 1   
    33   18   19 1   
    34   18   20 1   
    35   18   42 1   
    36   19   43 1   
    37   19   44 1   
    38   19   45 1   
    39   20   21 2   
    40   20   22 1   
    41   22   23 1   
    42   22   27 1   
    43   23   24 1   
    44   23   46 1   
    45   23   47 1   
    46   24   25 1   
    47   24   50 1   
    48   24   51 1   
    49   25   26 1   
    50   26   27 1   
    51   26   52 1   
    52   26   53 1   
    53   27   48 1   
    54   27   49 1   
    55   29   35 1   
@<TRIPOS>SUBSTRUCTURE
     1 701         1 TEMP              0 ****  ****    0 ROOT
