@<TRIPOS>MOLECULE
701
   53    51     1     0     0
SMALL
bcc


@<TRIPOS>ATOM
      1 CL1        -7.7740    1.8270    3.0570 cl        1 701      0.052000
      2 C1         -6.9590    0.3760    3.5740 c2        1 701     -0.372000
      3 C2         -6.4300    0.2630    5.0130 c1        1 701     -0.154000
      4 C3         -5.0850   -0.5730    5.0330 c1        1 701     -0.101000
      5 C4         -4.7190   -1.0160    3.6080 c1        1 701     -0.422000
      6 C9         -4.0500   -2.3530    3.3810 c1        1 701      0.195000
      7 C8         -4.6800   -3.6160    3.9260 c3        1 701     -0.218000
      8 S1         -2.1540   -0.9390    2.0540 ss        1 701      2.873000
      9 O2         -1.8250   -0.0220    3.1100 o         1 701     -0.940500
     10 O1         -3.1020   -0.1670    1.2990 o         1 701     -0.940500
     11 N1         -0.8320   -1.3060    1.1510 n2        1 701     -0.866000
     12 C12        -0.0320   -0.3670    0.7640 c3        1 701      0.025000
     13 C13         1.3100   -0.5050    1.4810 c3        1 701     -0.179000
     14 C14         2.1670   -1.0070    0.5520 c3        1 701     -0.046000
     15 C15         0.3940   -0.6110   -0.7650 c2        1 701      0.286000
     16 O3         -0.3400   -0.5410   -1.7300 o         1 701     -0.344000
     17 N2          1.6730   -0.5280   -0.7830 n         1 701     -0.300000
     18 C16         2.4760   -0.2570   -1.9230 c3        1 701      0.035000
     19 C17         2.3700   -1.4060   -2.8980 c3        1 701     -0.220000
     20 C18         1.9960    1.0150   -2.5870 c2        1 701      0.273000
     21 O4          0.8770    1.4310   -2.3650 o         1 701     -0.367000
     22 N3          2.8760    1.7540   -3.4250 n         1 701     -0.332000
     23 C19         2.5180    2.9710   -4.0270 c3        1 701     -0.058500
     24 C20         3.5330    4.0610   -3.7600 c3        1 701     -0.037500
     25 O5          4.8590    3.6500   -4.0740 os        1 701     -0.265000
     26 C22         5.2050    2.4150   -3.4570 c3        1 701     -0.037500
     27 C23         4.1820    1.3340   -3.7260 c3        1 701     -0.058500
     28 S6         -5.9010   -0.4470    2.4980 ss        1 701      0.613000
     29 C6         -2.8930   -2.4200    2.6930 c1        1 701     -0.974000
     30 H2         -6.5540    1.0020    5.6380 ha        1 701      0.170000
     31 H3         -4.3810   -0.3490    5.6710 ha        1 701      0.200000
     32 H8C1       -5.6530   -3.5020    3.9750 hc        1 701      0.102667
     33 H8C2       -4.3280   -3.7970    4.8220 hc        1 701      0.102667
     34 H8C3       -4.4690   -4.3680    3.3340 hc        1 701      0.102667
     35 H6         -2.4610   -3.2830    2.5460 ha        1 701      0.203000
     36 H1         -0.6440   -2.1780    0.9500 hn        1 701      0.245000
     37 H12        -0.5670    0.4280    0.9610 h1        1 701      0.149000
     38 H131        1.6210    0.3710    1.7910 hc        1 701      0.109000
     39 H132        1.2290   -1.1230    2.2370 hc        1 701      0.109000
     40 H141        2.1590   -1.9860    0.5820 h1        1 701      0.094500
     41 H142        3.0730   -0.6720    0.7150 h1        1 701      0.094500
     42 H16         3.4080   -0.1490   -1.6470 h1        1 701      0.105000
     43 H171        1.9170   -2.1610   -2.4670 hc        1 701      0.100333
     44 H172        3.2690   -1.6820   -3.1770 hc        1 701      0.100333
     45 H173        1.8570   -1.1220   -3.6830 hc        1 701      0.100333
     46 H191        2.4430    2.8370   -4.9950 h1        1 701      0.100500
     47 H192        1.6480    3.2550   -3.6770 h1        1 701      0.100500
     48 H231        4.3970    0.5510   -3.1800 h1        1 701      0.100500
     49 H232        4.2250    1.0840   -4.6720 h1        1 701      0.100500
     50 H201        3.3070    4.8450   -4.3010 h1        1 701      0.097000
     51 H202        3.4930    4.3070   -2.8120 h1        1 701      0.097000
     52 H221        6.0750    2.1220   -3.8000 h1        1 701      0.097000
     53 H222        5.2750    2.5530   -2.4900 h1        1 701      0.097000
@<TRIPOS>BOND
     1    1    2 1   
     2    2    3 1   
     3    2   28 1   
     4    3   30 1   
     5    4    5 1   
     6    4   31 1   
     7    5   28 1   
     8    6    7 1   
     9    6   29 1   
    10    7   32 1   
    11    7   33 1   
    12    7   34 1   
    13    8    9 1   
    14    8   10 1   
    15   11   12 1   
    16   11   36 1   
    17   12   13 1   
    18   12   15 1   
    19   12   37 1   
    20   13   14 1   
    21   13   38 1   
    22   13   39 1   
    23   14   17 1   
    24   14   40 1   
    25   14   41 1   
    26   15   16 1   
    27   15   17 1   
    28   17   18 1   
    29   18   19 1   
    30   18   20 1   
    31   18   42 1   
    32   19   43 1   
    33   19   44 1   
    34   19   45 1   
    35   20   21 1   
    36   20   22 1   
    37   22   23 1   
    38   22   27 1   
    39   23   24 1   
    40   23   46 1   
    41   23   47 1   
    42   24   25 1   
    43   24   50 1   
    44   24   51 1   
    45   25   26 1   
    46   26   27 1   
    47   26   52 1   
    48   26   53 1   
    49   27   48 1   
    50   27   49 1   
    51   29   35 1   
@<TRIPOS>SUBSTRUCTURE
     1 701         1 TEMP              0 ****  ****    0 ROOT
