@<TRIPOS>MOLECULE
702
   54    74     1     0     0
SMALL
bcc


@<TRIPOS>ATOM
      1 OAA         0.0000    0.0000    0.0000 o         1 702     -0.955667
      2 OAB         2.1520    0.0000    1.2180 o         1 702     -0.955667
      3 OAC         1.7960   -1.3160   -0.6650 o         1 702     -0.955667
      4 CAG         8.6790    9.3200   -6.5960 c2        1 702     -0.224000
      5 CAH         9.2820   10.2650   -5.7860 c2        1 702     -0.119000
      6 CAI         7.8990    8.3260   -6.0360 DU        1 702     -0.016000
      7 CAJ         5.9680   12.0350   -1.2250 c2        1 702     -0.166000
      8 CAK         4.7070   11.4680   -1.2730 c3        1 702     -0.235000
      9 CAL         2.1650    7.6320   -3.7550 c3        1 702     -0.144000
     10 CAM         9.1070   10.2140   -4.4160 c2        1 702     -0.320000
     11 CAN         7.7250    8.2740   -4.6650 c3        1 702     -0.377000
     12 CAO         1.6830    6.6600   -2.8960 c3        1 702     -0.355000
     13 CAP         3.4490    8.1190   -3.5970 c2        1 702     -0.586000
     14 CAQ         7.0770   11.2880   -1.5780 c2        1 702     -0.305000
     15 CAR         4.5530   10.1550   -1.6720 c2        1 702      0.030000
     16 CAS         3.7670    6.6600   -1.7150 c2        1 702     -0.375000
     17 CAU         1.9550    5.1190   -0.9430 DU        1 702     -0.233000
     18 CAV         1.7370    2.6580   -0.5600 DU        1 702     -0.243000
     19 OAX         5.5160    8.1120   -2.4200 os        1 702     -0.143000
     20 CAY         2.4830    6.1760   -1.8780 c3        1 702      0.011000
     21 CAZ         8.3280    9.2180   -3.8550 c3        1 702     -0.360000
     22 CBA         4.2530    7.6340   -2.5770 c3        1 702      0.000000
     23 CBB         6.9290    9.9740   -1.9780 c3        1 702     -0.211000
     24 CBC         5.6650    9.4050   -2.0260 c3        1 702      0.252000
     25 CBD         2.0570    1.2730   -1.1240 c3        1 702     -0.752000
     26 PBE         1.2720    1.0880   -2.7590 p5        1 702      0.923500
     27 SBF         1.4200    0.0000    0.0000 s6        1 702      2.405000
     28 HAI         7.1380    7.9150   -5.3830 DU        1 702      0.201000
     29 HAJ         5.4280   11.1090   -1.3830 DU        1 702      0.008000
     30 HAK         4.3570   10.4520   -1.4110 hc        1 702      0.035000
     31 HAL         2.1960    6.5490   -3.7800 DU        1 702      0.258000
     32 HAM         8.7570    9.6250   -3.5770 DU        1 702      0.424000
     33 HAN         7.5780    7.9360   -5.6840 DU        1 702      0.201000
     34 HAO         2.2770    7.5250   -2.6280 DU        1 702      0.258000
     35 HAP         3.5200    9.0230   -3.0030 ha        1 702      0.177000
     36 HAQ         6.2240   10.7940   -2.0280 DU        1 702      0.308000
     37 HAR         5.5410   10.3110   -2.0870 DU        1 702     -0.272000
     38 HAS         4.6170    6.8740   -2.3520 DU        1 702      0.242000
     39 HAU         1.4420    5.5840   -1.7760 DU        1 702      0.295000
     40 HAUA        2.1600    5.9500   -1.6060 ha        1 702     -0.130000
     41 HAV         2.3550    3.5430   -0.6550 DU        1 702      0.259500
     42 HAVA        2.0120    3.6950   -0.7140 DU        1 702      0.259500
     43 HBD         2.5210    2.2510   -1.0930 DU        1 702      0.200000
     44 HAG         8.0590    8.9050   -5.8110 DU        1 702      0.163000
     45 CAT         2.2740    3.7330   -1.5090 DU        1 702     -0.571000
     46 OAD        -0.3230    1.2520   -2.6100 o         1 702     -0.525500
     47 OAE         1.6080   -0.3700   -3.3540 o         1 702     -0.525500
     48 OAF         1.7910    2.1260   -3.6760 o         1 702     -0.525500
     49 CAW         8.1380    9.1620   -2.3620 c3        1 702      0.077000
     50 HAH         9.8930   11.0450   -6.2250 ha        1 702      0.124000
     51 HAT         1.9570    4.5100   -0.8240 DU        1 702      0.152000
     52 HATA        1.7700    4.6400   -1.8190 DU        1 702      0.152000
     53 HAW         9.1610    9.4980   -2.4780 hc        1 702      0.080000
     54 HAWA        8.3260    8.1040   -2.4950 hc        1 702      0.080000
@<TRIPOS>BOND
     1    1   27 1   
     2    2   27 1   
     3    3   27 1   
     4    4    5 1   
     5    4    6 1   
     6    4   44 1   
     7    5   10 1   
     8    5   50 1   
     9    6   11 1   
    10    6   28 1   
    11    6   33 1   
    12    6   44 1   
    13    7    8 1   
    14    7   14 1   
    15    7   29 1   
    16    8   15 1   
    17    8   29 1   
    18    8   30 1   
    19    9   12 1   
    20    9   13 1   
    21    9   31 1   
    22    9   34 1   
    23   10   21 1   
    24   10   32 1   
    25   11   21 1   
    26   11   28 1   
    27   11   33 1   
    28   12   20 1   
    29   12   31 1   
    30   12   34 1   
    31   13   22 1   
    32   13   35 1   
    33   14   23 1   
    34   14   36 1   
    35   15   24 1   
    36   15   37 1   
    37   16   20 1   
    38   16   22 1   
    39   16   38 1   
    40   17   20 1   
    41   17   39 1   
    42   17   40 1   
    43   17   45 1   
    44   17   51 1   
    45   17   52 1   
    46   18   25 1   
    47   18   41 1   
    48   18   42 1   
    49   18   43 1   
    50   18   45 1   
    51   19   22 1   
    52   19   24 1   
    53   20   39 1   
    54   21   32 1   
    55   21   49 1   
    56   22   38 1   
    57   23   24 1   
    58   23   36 1   
    59   23   49 1   
    60   24   37 1   
    61   25   26 1   
    62   25   27 1   
    63   25   43 1   
    64   26   46 1   
    65   26   47 1   
    66   26   48 1   
    67   28   33 1   
    68   41   42 1   
    69   41   45 1   
    70   42   45 1   
    71   45   51 1   
    72   45   52 1   
    73   49   53 1   
    74   49   54 1   
@<TRIPOS>SUBSTRUCTURE
     1 702         1 TEMP              0 ****  ****    0 ROOT
