@<TRIPOS>MOLECULE
703
   51    47     1     0     0
SMALL
bcc


@<TRIPOS>ATOM
      1 C1          6.6410    0.1080   -4.7150 c1        1 703     -0.104000
      2 C2          6.6890   -1.0710   -5.4150 c1        1 703     -0.065000
      3 C3          6.0350   -2.2050   -4.9200 c1        1 703     -0.124000
      4 C4          5.3270   -2.1350   -3.7010 c1        1 703     -0.072000
      5 C5          5.2810   -0.9530   -3.0030 c1        1 703     -0.015000
      6 C6          5.9360    0.1790   -3.5020 c1        1 703     -0.104000
      7 N7          6.0360   -3.4000   -5.6740 no        1 703      0.568000
      8 O8          6.6960   -3.4720   -6.6970 o         1 703     -0.355000
      9 O9          5.3330   -4.5310   -5.2050 o         1 703     -0.355000
     10 C10         4.5360   -0.8640   -1.8170 c1        1 703     -0.326000
     11 S11         4.8120   -1.3710   -0.3800 ss        1 703      0.666000
     12 C12         3.6270   -0.8890    0.5220 c2        1 703     -0.455000
     13 C13         2.7230   -0.1580   -0.2970 c2        1 703      0.034000
     14 C14         3.2970   -0.1370   -1.7980 c1        1 703     -0.117000
     15 N15         1.6710    0.2670    0.4980 n2        1 703     -0.140000
     16 C16         1.8970   -0.1780    1.7850 c1        1 703     -0.143000
     17 C17         3.1250   -0.9010    1.7920 c1        1 703      0.007000
     18 C18         0.4000    1.0170    0.4850 c1        1 703      0.129000
     19 N19        -0.1410    1.0040    1.8310 n3        1 703     -0.310000
     20 C20         0.7500    0.2880    2.6480 c1        1 703      0.383000
     21 S21        -0.2210    1.9010   -0.8330 s         1 703     -0.083000
     22 O22         0.5760    0.0030    3.7990 o         1 703     -0.270000
     23 C23        -1.3460    1.7080    2.2800 c3        1 703     -0.018000
     24 C24        -2.5460    0.7640    2.2040 c3        1 703     -0.184000
     25 C25        -3.8230    1.5320    2.5520 c3        1 703     -0.063000
     26 N26        -4.9660    0.7190    2.2520 n3        1 703     -0.249000
     27 C27        -5.7140    1.3180    1.2250 c3        1 703     -0.106000
     28 C28        -7.0370    0.5780    0.9590 c3        1 703     -0.024000
     29 O29        -7.8020    0.3780    2.1560 os        1 703     -0.271000
     30 C30        -7.0540   -0.2190    3.1820 c3        1 703     -0.024000
     31 C31        -5.7350    0.5180    3.4490 c3        1 703     -0.106000
     32 H1          7.0780    0.8690   -5.0460 ha        1 703      0.152500
     33 H2          7.2210   -1.1210   -6.3300 ha        1 703      0.174000
     34 H4          4.8790   -2.9120   -3.3600 ha        1 703      0.173000
     35 H6          5.9030    1.0130   -3.0080 ha        1 703      0.152500
     36 H14         2.8830    0.3020   -2.5570 DU        1 703      0.180000
     37 H17         3.5260   -1.3030    2.5410 DU        1 703      0.180000
     38 H231       -1.2300    1.9920    3.1550 h1        1 703      0.117000
     39 H232       -1.5040    2.4870    1.7000 h1        1 703      0.117000
     40 H241       -2.6240    0.3910    1.2700 hc        1 703      0.102500
     41 H242       -2.4210    0.0280    2.8430 hc        1 703      0.102500
     42 H251       -3.8230    1.7430    3.4700 h1        1 703      0.074000
     43 H252       -3.8600    2.3480    2.0330 h1        1 703      0.074000
     44 H271       -5.9030    2.1990    1.4660 h1        1 703      0.080750
     45 H272       -5.1720    1.3210    0.3890 h1        1 703      0.080750
     46 H281       -6.8420   -0.2750    0.5690 h1        1 703      0.093750
     47 H282       -7.5320    1.0640    0.3710 h1        1 703      0.093750
     48 H301       -7.5680   -0.2230    3.9760 h1        1 703      0.093750
     49 H302       -6.8550   -1.1400    2.9300 h1        1 703      0.093750
     50 H311       -5.2170    0.0090    4.0680 h1        1 703      0.080750
     51 H312       -5.9400    1.4110    3.8560 h1        1 703      0.080750
@<TRIPOS>BOND
     1    1    6 1   
     2    1   32 1   
     3    2    3 1   
     4    2   33 1   
     5    3    7 1   
     6    4    5 1   
     7    4   34 1   
     8    6   35 1   
     9    7    8 1   
    10    7    9 1   
    11   10   11 1   
    12   10   14 1   
    13   11   12 1   
    14   12   13 1   
    15   12   17 1   
    16   13   14 1   
    17   13   15 1   
    18   15   16 1   
    19   16   17 1   
    20   18   19 1   
    21   18   21 1   
    22   19   20 1   
    23   19   23 1   
    24   20   22 1   
    25   23   24 1   
    26   23   38 1   
    27   23   39 1   
    28   24   25 1   
    29   24   40 1   
    30   24   41 1   
    31   25   26 1   
    32   25   42 1   
    33   25   43 1   
    34   26   27 1   
    35   26   31 1   
    36   27   28 1   
    37   27   44 1   
    38   27   45 1   
    39   28   29 1   
    40   28   46 1   
    41   28   47 1   
    42   29   30 1   
    43   30   31 1   
    44   30   48 1   
    45   30   49 1   
    46   31   50 1   
    47   31   51 1   
@<TRIPOS>SUBSTRUCTURE
     1 703         1 TEMP              0 ****  ****    0 ROOT
