@<TRIPOS>MOLECULE
703
   51    55     1     0     0
SMALL
bcc


@<TRIPOS>ATOM
      1 C1          0.3550    0.2830   -0.0650 ca        1 703     -0.135000
      2 C2          1.7260    0.0550    0.0310 ca        1 703     -0.065000
      3 C3          2.2940   -0.1310    1.3020 ca        1 703     -0.169200
      4 C4          1.5070   -0.0860    2.4610 ca        1 703     -0.072000
      5 C5          0.1280    0.1420    2.3490 ca        1 703     -0.015000
      6 C6         -0.4400    0.3250    1.0780 ca        1 703     -0.073000
      7 N7          3.7560   -0.3770    1.4230 no        1 703      0.313200
      8 O8          4.2270   -0.5550    2.5140 o         1 703     -0.205000
      9 O9          4.4260   -0.3940    0.4260 o         1 703     -0.205000
     10 C10        -0.6960    0.1860    3.5350 cc        1 703     -0.056100
     11 S11        -0.2840   -0.6770    4.9340 ss        1 703      0.125200
     12 C12        -1.6040   -0.1650    5.7770 cc        1 703     -0.185100
     13 C13        -2.4180    0.7130    4.9550 cd        1 703      0.009700
     14 C14        -1.8780    0.9070    3.6590 cd        1 703     -0.117000
     15 N15        -3.5140    1.1020    5.6990 n         1 703     -0.048200
     16 C16        -3.3920    0.4920    7.0010 cd        1 703     -0.188900
     17 C17        -2.2450   -0.2830    7.0630 cc        1 703      0.007000
     18 C18        -4.6510    1.9400    5.6260 c         1 703      0.435200
     19 N19        -5.2610    1.8490    6.9040 n         1 703     -0.481400
     20 C20        -4.5560    0.9610    7.7870 c         1 703      0.745100
     21 S21        -5.1110    2.7950    4.3940 s         1 703     -0.360400
     22 O22        -4.8920    0.6990    8.9410 o         1 703     -0.548500
     23 C23        -6.5200    2.4650    7.2300 c3        1 703      0.095000
     24 C24        -7.7260    1.5260    7.1520 c3        1 703     -0.105400
     25 C25        -8.9700    2.3050    7.5800 c3        1 703      0.173800
     26 N26       -10.2110    1.5710    7.3750 n3        1 703     -0.724600
     27 C27       -11.3740    2.4400    7.5260 c3        1 703      0.130800
     28 C28       -12.6970    1.6780    7.3910 c3        1 703      0.126400
     29 O29       -12.7510    0.5600    8.2680 os        1 703     -0.414600
     30 C30       -11.6610   -0.3320    8.0650 c3        1 703      0.126400
     31 C31       -10.3100    0.3790    8.2080 c3        1 703      0.130800
     32 H1         -0.1010    0.4290   -1.0560 ha        1 703      0.153000
     33 H2          2.3580    0.0210   -0.8740 ha        1 703      0.174000
     34 H4          1.9720   -0.2240    3.4540 ha        1 703      0.172000
     35 H6         -1.5240    0.5000    0.9870 ha        1 703      0.152000
     36 H14        -2.3290    1.5420    2.8920 ha        1 703      0.181000
     37 H17        -1.8910   -0.8660    7.9120 ha        1 703      0.179000
     38 H231       -6.6760    3.3340    6.5250 h1        1 703      0.079200
     39 H232       -6.4290    2.8580    8.2850 h1        1 703      0.079200
     40 H241       -7.5650    0.6480    7.8320 hc        1 703      0.063200
     41 H242       -7.8520    1.1380    6.1090 hc        1 703      0.063200
     42 H251       -9.0310    3.2450    6.9610 h1        1 703      0.035200
     43 H252       -8.8420    2.6160    8.6600 h1        1 703      0.035200
     44 H271      -11.3280    3.2190    6.7150 h1        1 703      0.041950
     45 H272      -11.3690    2.9720    8.5210 h1        1 703      0.041950
     46 H281      -13.5510    2.3290    7.7140 h1        1 703      0.054700
     47 H282      -12.8510    1.3340    6.3340 h1        1 703      0.054700
     48 H301      -11.7770   -1.1040    8.8700 h1        1 703      0.054700
     49 H302      -11.7520   -0.8100    7.0540 h1        1 703      0.054700
     50 H311      -10.1470    0.6190    9.2990 h1        1 703      0.041950
     51 H312       -9.5020   -0.3340    7.8840 h1        1 703      0.041950
@<TRIPOS>BOND
     1    1    2 ar  
     2    1    6 ar  
     3    1   32 1   
     4    2    3 ar  
     5    2   33 1   
     6    3    4 ar  
     7    3    7 1   
     8    4    5 ar  
     9    4   34 1   
    10    5    6 ar  
    11    5   10 1   
    12    6   35 1   
    13    7    8 1   
    14    7    9 1   
    15   10   11 1   
    16   10   14 2   
    17   11   12 1   
    18   12   13 2   
    19   12   17 1   
    20   13   14 1   
    21   13   15 1   
    22   14   36 1   
    23   15   16 1   
    24   15   18 1   
    25   16   17 2   
    26   16   20 1   
    27   17   37 1   
    28   18   19 1   
    29   18   21 2   
    30   19   20 1   
    31   19   23 1   
    32   20   22 2   
    33   23   24 1   
    34   23   38 1   
    35   23   39 1   
    36   24   25 1   
    37   24   40 1   
    38   24   41 1   
    39   25   26 1   
    40   25   42 1   
    41   25   43 1   
    42   26   27 1   
    43   26   31 1   
    44   27   28 1   
    45   27   44 1   
    46   27   45 1   
    47   28   29 1   
    48   28   46 1   
    49   28   47 1   
    50   29   30 1   
    51   30   31 1   
    52   30   48 1   
    53   30   49 1   
    54   31   50 1   
    55   31   51 1   
@<TRIPOS>SUBSTRUCTURE
     1 703         1 TEMP              0 ****  ****    0 ROOT
