@<TRIPOS>MOLECULE
703
   51    55     1     0     0
SMALL
bcc


@<TRIPOS>ATOM
      1 C1          0.3610    0.2980   -0.0640 ca        1 703     -0.135000
      2 C2          1.7310    0.0660    0.0330 ca        1 703     -0.065000
      3 C3          2.2960   -0.1300    1.3030 ca        1 703     -0.169200
      4 C4          1.5080   -0.0900    2.4620 ca        1 703     -0.072000
      5 C5          0.1290    0.1430    2.3490 ca        1 703     -0.015000
      6 C6         -0.4360    0.3350    1.0780 ca        1 703     -0.073000
      7 N7          3.7580   -0.3810    1.4250 no        1 703      0.313200
      8 O8          4.2260   -0.5670    2.5160 o         1 703     -0.205000
      9 O9          4.4290   -0.3940    0.4290 o         1 703     -0.205000
     10 C10        -0.6970    0.1820    3.5340 cc        1 703     -0.056100
     11 S11        -0.2900   -0.6920    4.9280 ss        1 703      0.125200
     12 C12        -1.6090   -0.1810    5.7710 cc        1 703     -0.185100
     13 C13        -2.4190    0.7060    4.9540 cd        1 703      0.009700
     14 C14        -1.8760    0.9060    3.6610 cd        1 703     -0.117000
     15 N15        -3.5150    1.0930    5.6990 n         1 703     -0.048200
     16 C16        -3.3970    0.4750    6.9970 cd        1 703     -0.188900
     17 C17        -2.2530   -0.3040    7.0560 cc        1 703      0.007000
     18 C18        -4.6480    1.9370    5.6300 c         1 703      0.435200
     19 N19        -5.2600    1.8400    6.9070 n         1 703     -0.481400
     20 C20        -4.5600    0.9440    7.7850 c         1 703      0.745100
     21 S21        -5.1030    2.8010    4.4020 s         1 703     -0.360400
     22 O22        -4.8980    0.6760    8.9360 o         1 703     -0.548500
     23 C23        -6.5170    2.4590    7.2350 c3        1 703      0.095000
     24 C24        -7.7260    1.5240    7.1530 c3        1 703     -0.105400
     25 C25        -8.9670    2.3060    7.5830 c3        1 703      0.173800
     26 N26       -10.2110    1.5770    7.3750 n3        1 703     -0.724600
     27 C27       -11.3720    2.4490    7.5260 c3        1 703      0.130800
     28 C28       -12.6970    1.6910    7.3890 c3        1 703      0.126400
     29 O29       -12.7550    0.5720    8.2650 os        1 703     -0.414600
     30 C30       -11.6680   -0.3230    8.0610 c3        1 703      0.126400
     31 C31       -10.3150    0.3830    8.2060 c3        1 703      0.130800
     32 H1         -0.0940    0.4520   -1.0550 ha        1 703      0.153000
     33 H2          2.3640    0.0350   -0.8710 ha        1 703      0.174000
     34 H4          1.9700   -0.2360    3.4540 ha        1 703      0.172000
     35 H6         -1.5200    0.5140    0.9870 ha        1 703      0.152000
     36 H14        -2.3230    1.5470    2.8970 ha        1 703      0.181000
     37 H17        -1.9020   -0.8940    7.9020 ha        1 703      0.179000
     38 H231       -6.4250    2.8470    8.2910 h1        1 703      0.079200
     39 H232       -6.6700    3.3320    6.5340 h1        1 703      0.079200
     40 H241       -7.5690    0.6440    7.8290 hc        1 703      0.063200
     41 H242       -7.8530    1.1400    6.1080 hc        1 703      0.063200
     42 H251       -8.8390    2.6140    8.6630 h1        1 703      0.035200
     43 H252       -9.0260    3.2490    6.9660 h1        1 703      0.035200
     44 H271      -11.3660    2.9790    8.5230 h1        1 703      0.041950
     45 H272      -11.3220    3.2290    6.7170 h1        1 703      0.041950
     46 H281      -13.5490    2.3450    7.7130 h1        1 703      0.054700
     47 H282      -12.8510    1.3500    6.3320 h1        1 703      0.054700
     48 H301      -11.7870   -1.0960    8.8640 h1        1 703      0.054700
     49 H302      -11.7590   -0.7990    7.0490 h1        1 703      0.054700
     50 H311       -9.5080   -0.3310    7.8810 h1        1 703      0.041950
     51 H312      -10.1520    0.6210    9.2980 h1        1 703      0.041950
@<TRIPOS>BOND
     1    1    2 ar  
     2    1    6 ar  
     3    1   32 1   
     4    2    3 ar  
     5    2   33 1   
     6    3    4 ar  
     7    3    7 1   
     8    4    5 ar  
     9    4   34 1   
    10    5    6 ar  
    11    5   10 1   
    12    6   35 1   
    13    7    8 1   
    14    7    9 1   
    15   10   11 1   
    16   10   14 2   
    17   11   12 1   
    18   12   13 2   
    19   12   17 1   
    20   13   14 1   
    21   13   15 1   
    22   14   36 1   
    23   15   16 1   
    24   15   18 1   
    25   16   17 2   
    26   16   20 1   
    27   17   37 1   
    28   18   19 1   
    29   18   21 2   
    30   19   20 1   
    31   19   23 1   
    32   20   22 2   
    33   23   24 1   
    34   23   38 1   
    35   23   39 1   
    36   24   25 1   
    37   24   40 1   
    38   24   41 1   
    39   25   26 1   
    40   25   42 1   
    41   25   43 1   
    42   26   27 1   
    43   26   31 1   
    44   27   28 1   
    45   27   44 1   
    46   27   45 1   
    47   28   29 1   
    48   28   46 1   
    49   28   47 1   
    50   29   30 1   
    51   30   31 1   
    52   30   48 1   
    53   30   49 1   
    54   31   50 1   
    55   31   51 1   
@<TRIPOS>SUBSTRUCTURE
     1 703         1 TEMP              0 ****  ****    0 ROOT
