@<TRIPOS>MOLECULE
703
   51    55     1     0     0
SMALL
bcc


@<TRIPOS>ATOM
      1 C1         -5.9680   -2.8180   -0.3280 ca        1 703     -0.135000
      2 C2         -7.1730   -2.1200   -0.2950 ca        1 703     -0.065000
      3 C3         -7.1400   -0.7170   -0.2310 ca        1 703     -0.169200
      4 C4         -5.9230   -0.0210   -0.1950 ca        1 703     -0.072000
      5 C5         -4.7180   -0.7380   -0.2300 ca        1 703     -0.015000
      6 C6         -4.7520   -2.1400   -0.2970 ca        1 703     -0.073000
      7 N7         -8.4170    0.0450   -0.1980 no        1 703      0.313200
      8 O8         -8.3770    1.2460   -0.1640 o         1 703     -0.205000
      9 O9         -9.4550   -0.5600   -0.2090 o         1 703     -0.205000
     10 C10        -3.4580   -0.0330   -0.1980 cc        1 703     -0.056100
     11 S11        -3.3040    1.5400   -0.8100 ss        1 703      0.125200
     12 C12        -1.7010    1.6470   -0.4470 cc        1 703     -0.185100
     13 C13        -1.2400    0.4180    0.1740 cd        1 703      0.009700
     14 C14        -2.2700   -0.5460    0.3120 cd        1 703     -0.117000
     15 N15         0.1070    0.5530    0.4440 n         1 703     -0.048200
     16 C16         0.5040    1.8740    0.0180 cd        1 703     -0.188900
     17 C17        -0.5770    2.5470   -0.5290 cc        1 703      0.007000
     18 C18         1.1800   -0.1370    1.0550 c         1 703      0.435200
     19 N19         2.2760    0.7640    1.0030 n         1 703     -0.481400
     20 C20         1.9390    2.0040    0.3610 c         1 703      0.745100
     21 S21         1.1420   -1.5800    1.6690 s         1 703     -0.360400
     22 O22         2.7160    2.9380    0.1770 o         1 703     -0.548500
     23 C23         3.6090    0.4180    1.4200 c3        1 703      0.095000
     24 C24         4.5480    0.0170    0.2800 c3        1 703     -0.105400
     25 C25         5.9290   -0.2620    0.8700 c3        1 703      0.173800
     26 N26         6.8670   -0.8280   -0.0910 n3        1 703     -0.724600
     27 C27         8.0640   -1.3380    0.5690 c3        1 703      0.130800
     28 C28         9.1010   -1.8700   -0.4250 c3        1 703      0.126400
     29 O29         9.4140   -0.9070   -1.4240 os        1 703     -0.414600
     30 C30         8.2550   -0.4710   -2.1260 c3        1 703      0.126400
     31 C31         7.1910    0.0900   -1.1750 c3        1 703      0.130800
     32 H1         -5.9810   -3.9180   -0.3790 ha        1 703      0.153000
     33 H2         -8.1370   -2.6560   -0.3200 ha        1 703      0.174000
     34 H4         -5.9160    1.0820   -0.1340 ha        1 703      0.172000
     35 H6         -3.8060   -2.7050   -0.3290 ha        1 703      0.152000
     36 H14        -2.1360   -1.5310    0.7640 ha        1 703      0.181000
     37 H17        -0.5830    3.5550   -0.9400 ha        1 703      0.179000
     38 H231        4.0340    1.3250    1.9420 h1        1 703      0.079200
     39 H232        3.5340   -0.4320    2.1610 h1        1 703      0.079200
     40 H241        4.1590   -0.8950   -0.2430 hc        1 703      0.063200
     41 H242        4.6060    0.8480   -0.4700 hc        1 703      0.063200
     42 H251        6.3240    0.6960    1.3230 h1        1 703      0.035200
     43 H252        5.8150   -1.0110    1.7060 h1        1 703      0.035200
     44 H271        8.5550   -0.5470    1.2070 h1        1 703      0.041950
     45 H272        7.7510   -2.1840    1.2430 h1        1 703      0.041950
     46 H281       10.0750   -2.0580    0.0970 h1        1 703      0.054700
     47 H282        8.7360   -2.8130   -0.9130 h1        1 703      0.054700
     48 H301        8.6290    0.3390   -2.8060 h1        1 703      0.054700
     49 H302        7.8400   -1.3210   -2.7280 h1        1 703      0.054700
     50 H311        6.2500    0.2690   -1.7660 h1        1 703      0.041950
     51 H312        7.5520    1.0850   -0.7830 h1        1 703      0.041950
@<TRIPOS>BOND
     1    1    2 ar  
     2    1    6 ar  
     3    1   32 1   
     4    2    3 ar  
     5    2   33 1   
     6    3    4 ar  
     7    3    7 1   
     8    4    5 ar  
     9    4   34 1   
    10    5    6 ar  
    11    5   10 1   
    12    6   35 1   
    13    7    8 1   
    14    7    9 1   
    15   10   11 1   
    16   10   14 2   
    17   11   12 1   
    18   12   13 2   
    19   12   17 1   
    20   13   14 1   
    21   13   15 1   
    22   14   36 1   
    23   15   16 1   
    24   15   18 1   
    25   16   17 2   
    26   16   20 1   
    27   17   37 1   
    28   18   19 1   
    29   18   21 2   
    30   19   20 1   
    31   19   23 1   
    32   20   22 2   
    33   23   24 1   
    34   23   38 1   
    35   23   39 1   
    36   24   25 1   
    37   24   40 1   
    38   24   41 1   
    39   25   26 1   
    40   25   42 1   
    41   25   43 1   
    42   26   27 1   
    43   26   31 1   
    44   27   28 1   
    45   27   44 1   
    46   27   45 1   
    47   28   29 1   
    48   28   46 1   
    49   28   47 1   
    50   29   30 1   
    51   30   31 1   
    52   30   48 1   
    53   30   49 1   
    54   31   50 1   
    55   31   51 1   
@<TRIPOS>SUBSTRUCTURE
     1 703         1 TEMP              0 ****  ****    0 ROOT
