@<TRIPOS>MOLECULE
704
   42    42     1     0     0
SMALL
bcc


@<TRIPOS>ATOM
      1 Cl1         1.6800    2.4050    2.4600 cl        1 704     -0.057400
      2 C1          9.3930   -0.1750    2.0770 c3        1 704     -0.006900
      3 C2          9.0090    0.2540    3.4360 c2        1 704     -0.376200
      4 C4          9.8450    0.4230    4.5410 c2        1 704      0.536300
      5 O5          9.5270    0.7740    5.7000 o         1 704     -0.648300
      6 N6         11.3550    0.2100    4.4350 nx        1 704     -0.557200
      7 C7         11.7410   -1.0780    3.8240 c3        1 704      0.089600
      8 C8         12.0090    1.3630    3.7740 c3        1 704      0.089600
      9 N9          7.6000    0.5480    3.6750 ny        1 704     -0.455600
     10 C10         6.7140   -0.6490    3.5600 ce        1 704      0.120600
     11 C11         6.6780   -1.5670    4.5810 c2        1 704      0.115500
     12 C12         3.3680   -2.6360    3.6460 c1        1 704      0.589800
     13 N13         4.1110   -2.0330    2.9380 n1        1 704     -0.964400
     14 C14         4.9170   -1.3150    2.0680 cf        1 704      0.840600
     15 N15         6.0490   -0.7260    2.3290 ne        1 704     -0.625300
     16 C16         4.3800   -1.1720    0.6320 c3        1 704     -0.157100
     17 C17         5.5040   -1.3990   -0.3850 c2        1 704      0.433200
     18 N18         5.9650   -0.3360   -0.9540 n2        1 704     -0.531900
     19 C20         5.2290    0.8620   -0.4310 c3        1 704      0.492200
     20 C21         4.0390    0.2780    0.3780 c2        1 704     -0.173500
     21 C22         2.9590    0.9140    0.7060 c1        1 704     -0.014800
     22 C23         1.8700    1.5590    1.0130 c2        1 704     -0.032700
     23 C24         6.7020    2.2600    1.1810 c1        1 704      0.401800
     24 N25         6.0260    1.6880    0.4040 n1        1 704     -0.796300
     25 H1          7.3150    1.2720    2.9870 hn        1 704      0.473800
     26 H2         10.3040    0.3730    1.7300 hc        1 704      0.046033
     27 H3          8.5860    0.0370    1.3270 hc        1 704      0.046033
     28 H4          9.6000   -1.2750    2.0500 hc        1 704      0.046033
     29 H5         11.0340   -1.8770    4.1710 hx        1 704      0.096533
     30 H6         12.7890   -1.3370    4.1370 hx        1 704      0.096533
     31 H7         11.7030   -1.0070    2.7050 hx        1 704      0.096533
     32 H8         11.6400    1.4650    2.7200 hx        1 704      0.096533
     33 H9         13.1210    1.2090    3.7680 hx        1 704      0.096533
     34 H10        11.7570    2.2970    4.3460 hx        1 704      0.096533
     35 H11         7.4860    0.9200    4.6310 hn        1 704      0.473800
     36 H12         6.0650   -2.4880    4.5450 h4        1 704      0.190000
     37 H13         3.5170   -1.8590    0.4440 hc        1 704      0.122700
     38 H14         5.8540   -2.4140   -0.6230 h4        1 704      0.062800
     39 H15         4.8700    1.4660   -1.3190 h2        1 704      0.127700
     40 H16         0.9880    1.6020    0.3520 h4        1 704      0.191000
     41 H61        11.6750    0.1990    5.4200 hn        1 704      0.456800
     42 F27         7.3860   -1.4400    5.7090 f         1 704     -0.126500
@<TRIPOS>BOND
     1    1   22 1   
     2    2    3 1   
     3    2   26 1   
     4    2   27 1   
     5    2   28 1   
     6    3    4 2   
     7    3    9 1   
     8    4    5 1   
     9    4    6 1   
    10    6    7 1   
    11    6    8 1   
    12    6   41 1   
    13    7   29 1   
    14    7   30 1   
    15    7   31 1   
    16    8   32 1   
    17    8   33 1   
    18    8   34 1   
    19    9   10 1   
    20    9   25 1   
    21    9   35 1   
    22   10   11 2   
    23   10   15 1   
    24   11   36 1   
    25   11   42 1   
    26   12   13 3   
    27   13   14 1   
    28   14   15 2   
    29   14   16 1   
    30   16   17 1   
    31   16   20 1   
    32   16   37 1   
    33   17   18 2   
    34   17   38 1   
    35   18   19 1   
    36   19   20 1   
    37   19   24 1   
    38   19   39 1   
    39   20   21 2   
    40   21   22 2   
    41   22   40 1   
    42   23   24 3   
@<TRIPOS>SUBSTRUCTURE
     1 704         1 TEMP              0 ****  ****    0 ROOT
