@<TRIPOS>MOLECULE
704
   42    42     1     0     0
SMALL
bcc


@<TRIPOS>ATOM
      1 CL1        -0.4990   -0.1410    0.9740 cl        1 704     -0.031400
      2 C1          9.6710   -0.1110    2.1580 c3        1 704     -0.007900
      3 C2          9.3330    0.2450    3.5500 c2        1 704     -0.377200
      4 C4         10.1400    0.1070    4.6810 c2        1 704      0.535300
      5 O5          9.8650    0.4130    5.8640 o         1 704     -0.649300
      6 N6         11.5610   -0.4480    4.5820 n4        1 704     -0.557200
      7 C7         11.6580   -1.7240    3.8430 c3        1 704      0.089100
      8 C8         12.5000    0.5730    4.0640 c3        1 704      0.089100
      9 N9          8.0010    0.7810    3.8050 n4        1 704     -0.447600
     10 C10         6.8920   -0.1810    3.5350 ce        1 704      0.109600
     11 C11         6.5130   -1.0700    4.5110 c2        1 704      0.125500
     12 C12         2.9270   -0.7420    2.4470 c1        1 704      0.372400
     13 N13         4.1520   -0.8080    2.7110 nf        1 704     -0.643700
     14 C14         5.1850   -0.3620    1.8400 cf        1 704      0.744300
     15 N15         6.4090   -0.1110    2.2190 ne        1 704     -0.607300
     16 C16         4.8770   -0.1960    0.3570 c3        1 704     -0.204100
     17 C17         6.0610   -0.5620   -0.5510 c2        1 704      0.423200
     18 N18         6.4730    0.4250   -1.2940 ne        1 704     -0.516300
     19 C20         5.6260    1.5760   -0.9690 ce        1 704      0.750300
     20 C21         4.6880    1.2600   -0.0060 c2        1 704     -0.236200
     21 C22         1.6650   -0.7390    2.3500 c1        1 704     -0.210900
     22 C23         0.3590   -0.7510    2.2820 c2        1 704      0.102300
     23 C24         5.9700    3.8120   -2.1510 c1        1 704      0.542800
     24 N25         5.7990    2.7810   -1.5890 n1        1 704     -1.117500
     25 H1          7.8820    1.6090    3.2070 hn        1 704      0.460800
     26 H2         10.7060    0.2270    1.9040 hc        1 704      0.047033
     27 H3          9.6030   -1.2180    2.0020 hc        1 704      0.047033
     28 H4          8.9840    0.3750    1.4190 hc        1 704      0.047033
     29 H5         10.7680   -2.3610    4.0890 hx        1 704      0.096700
     30 H6         11.6850   -1.5350    2.7370 hx        1 704      0.096700
     31 H7         12.6000   -2.2560    4.1450 hx        1 704      0.096700
     32 H8         12.2210    0.8620    3.0180 hx        1 704      0.096700
     33 H9         12.4460    1.4800    4.7260 hx        1 704      0.096700
     34 H10        13.5430    0.1590    4.0710 hx        1 704      0.096700
     35 H11         7.9310    1.0600    4.7970 hn        1 704      0.460800
     36 H12         5.7050   -1.8130    4.3670 h4        1 704      0.210000
     37 H13         3.9780   -0.8030    0.0630 hc        1 704      0.124700
     38 H14         6.5020   -1.5650   -0.5690 h4        1 704      0.061800
     39 H15         3.9170    1.8910    0.4260 ha        1 704      0.177000
     40 H16        -0.2800   -1.1660    3.0840 h4        1 704      0.186000
     41 H61        11.8240   -0.6350    5.5670 hn        1 704      0.457800
     42 F27         7.0890   -1.1170    5.7200 f         1 704     -0.137500
@<TRIPOS>BOND
     1    1   22 1   
     2    2    3 1   
     3    2   26 1   
     4    2   27 1   
     5    2   28 1   
     6    3    4 2   
     7    3    9 1   
     8    4    5 1   
     9    4    6 1   
    10    6    7 1   
    11    6    8 1   
    12    6   41 1   
    13    7   29 1   
    14    7   30 1   
    15    7   31 1   
    16    8   32 1   
    17    8   33 1   
    18    8   34 1   
    19    9   10 1   
    20    9   25 1   
    21    9   35 1   
    22   10   11 2   
    23   10   15 1   
    24   11   36 1   
    25   11   42 1   
    26   12   13 2   
    27   12   21 2   
    28   13   14 1   
    29   14   15 2   
    30   14   16 1   
    31   16   17 1   
    32   16   20 1   
    33   16   37 1   
    34   17   18 2   
    35   17   38 1   
    36   18   19 1   
    37   19   20 2   
    38   19   24 1   
    39   20   39 1   
    40   21   22 2   
    41   22   40 1   
    42   23   24 3   
@<TRIPOS>SUBSTRUCTURE
     1 704         1 TEMP              0 ****  ****    0 ROOT
