@<TRIPOS>MOLECULE
704
   41    40     1     0     0
SMALL
bcc


@<TRIPOS>ATOM
      1 CL1         0.2810    0.0170    4.4240 cl        1 704      0.002000
      2 C1          9.9480    0.5650    2.4400 c3        1 704     -0.080000
      3 C2          9.3800    0.4280    3.7890 c2        1 704     -0.579000
      4 C4         10.0940    0.1310    4.9990 c2        1 704      0.368000
      5 O5          9.5330    0.2560    6.1310 o         1 704     -0.497000
      6 N6         11.4690   -0.2160    4.9530 n         1 704     -0.307000
      7 C7         11.8950   -1.2360    4.0340 c3        1 704     -0.082000
      8 C8         12.1640   -0.2290    6.2170 c3        1 704     -0.082000
      9 N9          7.9700    0.6700    3.9530 n4        1 704      0.164000
     10 C10         7.0800   -0.3100    3.2630 c2        1 704     -0.120000
     11 C11         6.7250   -1.4780    3.8890 c2        1 704      0.017000
     12 C12         3.5440   -0.0840    2.5650 c1        1 704      0.135000
     13 N13         4.4540   -0.7230    2.0130 n2        1 704     -0.164000
     14 C14         5.6090   -0.1590    1.3730 c2        1 704      0.169000
     15 N15         6.7880   -0.0090    1.9190 n2        1 704     -0.174000
     16 C16         5.4750    0.1830   -0.0590 c2        1 704     -0.246000
     17 C17         6.0780    1.4060   -3.4560 c1        1 704     -0.114000
     18 N18         5.2760    0.7580   -2.9070 n2        1 704      0.105000
     19 C20         4.3590    0.0180   -2.2630 c2        1 704     -0.117000
     20 C21         4.4910   -0.2870   -0.8550 c2        1 704      0.024000
     21 C22         2.5560    0.4580    3.1570 c1        1 704     -0.277000
     22 C23         1.5230    0.9590    3.7710 c2        1 704      0.045000
     23 C24         2.3540   -0.8700   -3.5910 c1        1 704      0.121000
     24 N25         3.2840   -0.4540   -2.9900 n2        1 704     -0.266000
     25 H1          7.7540    1.6030    3.5920 hn        1 704      0.234500
     26 H2          9.7540   -0.3400    1.8080 hc        1 704      0.055000
     27 H3         11.0530    0.7240    2.5040 hc        1 704      0.055000
     28 H4          9.5140    1.4470    1.8990 hc        1 704      0.055000
     29 H5         11.0990   -1.4640    3.2780 h1        1 704      0.071167
     30 H6         12.1530   -2.1930    4.5690 h1        1 704      0.071167
     31 H7         12.8150   -0.8760    3.4980 h1        1 704      0.071167
     32 H8         11.9610   -1.1630    6.8080 h1        1 704      0.071167
     33 H9         13.2650   -0.1600    6.0150 h1        1 704      0.071167
     34 H10        11.8370    0.6520    6.8290 h1        1 704      0.071167
     35 H11         7.7550    0.6260    4.9650 hn        1 704      0.234500
     36 H12         6.1200   -2.2600    3.3950 h4        1 704      0.179000
     37 H13         6.2770    0.8350   -0.4410 ha        1 704      0.148000
     38 H14         6.8290    1.9810   -3.9510 ha        1 704      0.314000
     39 H15         3.7030   -0.9620   -0.4680 ha        1 704      0.161000
     40 H16         1.3690    2.0410    3.9180 h4        1 704      0.169000
     41 F27         7.0880   -1.7840    5.1440 f         1 704     -0.079000
@<TRIPOS>BOND
     1    1   22 1   
     2    2    3 1   
     3    2   26 1   
     4    2   27 1   
     5    2   28 1   
     6    3    4 1   
     7    3    9 1   
     8    4    5 1   
     9    4    6 1   
    10    6    7 1   
    11    6    8 1   
    12    7   29 1   
    13    7   30 1   
    14    7   31 1   
    15    8   32 1   
    16    8   33 1   
    17    8   34 1   
    18    9   10 1   
    19    9   25 1   
    20    9   35 1   
    21   10   11 1   
    22   10   15 1   
    23   11   36 1   
    24   11   41 1   
    25   12   13 1   
    26   12   21 1   
    27   13   14 1   
    28   14   15 1   
    29   14   16 1   
    30   16   20 1   
    31   16   37 1   
    32   17   18 1   
    33   17   38 1   
    34   18   19 1   
    35   19   20 1   
    36   19   24 1   
    37   20   39 1   
    38   21   22 1   
    39   22   40 1   
    40   23   24 1   
@<TRIPOS>SUBSTRUCTURE
     1 704         1 TEMP              0 ****  ****    0 ROOT
