@<TRIPOS>MOLECULE
705
   71    75     1     0     0
SMALL
bcc


@<TRIPOS>ATOM
      1 F30         9.5980    5.4890    4.1620 f         1 705     -0.118900
      2 C29         9.0590    4.5000    3.4170 ca        1 705      0.160900
      3 C26         9.5710    3.1910    3.5100 ca        1 705     -0.162500
      4 C25         9.0080    2.1790    2.7410 ca        1 705     -0.082500
      5 C28         7.9850    4.7790    2.5490 ca        1 705     -0.162500
      6 C27         7.4390    3.7560    1.7840 ca        1 705     -0.082500
      7 C24         7.9400    2.4490    1.8730 cp        1 705     -0.096000
      8 C22         7.3580    1.3790    1.0670 cp        1 705      0.001000
      9 C21         7.0130    1.6070   -0.2660 ca        1 705     -0.060000
     10 C23         7.1450    0.1100    1.6300 ca        1 705     -0.106000
     11 C33         6.5960   -0.9080    0.8530 ca        1 705      0.059100
     12 O34         6.3500   -2.1830    1.3110 oh        1 705     -0.509100
     13 C31         6.2420   -0.6830   -0.4990 ca        1 705      0.149100
     14 O32         5.7160   -1.6850   -1.2760 oh        1 705     -0.541100
     15 C20         6.4460    0.5900   -1.0610 ca        1 705     -0.198600
     16 C18         6.1510    0.9540   -2.4470 c         1 705      0.585700
     17 O19         6.6500    1.8740   -3.0860 o         1 705     -0.443100
     18 N17         5.0910    0.1770   -3.1890 ny        1 705     -0.675800
     19 C16         5.7110   -0.7410   -4.2000 c3        1 705      0.157000
     20 C15         4.7040   -1.4740   -5.0140 c2        1 705     -0.234200
     21 C14         3.9120   -0.9350   -5.9460 c2        1 705     -0.106200
     22 C6          3.8280    0.5180   -6.2720 c3        1 705      0.106300
     23 C4          2.6220    1.1920   -5.5630 c3        1 705      0.075100
     24 O5          3.0790    2.0230   -4.5210 oh        1 705     -0.637800
     25 C2          1.8630    1.9240   -6.6940 c3        1 705      0.089100
     26 O3          2.2020    3.2890   -6.7100 oh        1 705     -0.571800
     27 O13         3.6600    0.7000   -7.6790 os        1 705     -0.398600
     28 C1          2.3380    1.1980   -7.9920 c3        1 705      0.220800
     29 N10         1.4560    0.1650   -8.4390 na        1 705     -0.299000
     30 C9          0.8220   -0.8540   -7.6680 cc        1 705      0.370700
     31 C11         1.2990   -0.2310   -9.7870 ca        1 705      0.485800
     32 N40         1.7210    0.3620  -10.9370 nb        1 705     -0.748000
     33 C39         1.3280   -0.3200  -12.0450 ca        1 705      0.706900
     34 N38         0.6050   -1.4590  -12.1590 nb        1 705     -0.779000
     35 C35         0.1720   -2.0680  -10.9970 ca        1 705      0.774200
     36 C12         0.5180   -1.4590   -9.7390 ca        1 705     -0.248200
     37 N8          0.2460   -1.8060   -8.4060 nd        1 705     -0.508100
     38 N7         -0.5560   -3.2240  -11.0190 nu        1 705     -0.847900
     39 C36        -0.9750   -3.8610  -12.2430 c3        1 705      0.212800
     40 C37        -1.8020   -5.1240  -12.0030 c3        1 705     -0.096400
     41 C41        -2.1990   -5.7330  -13.3240 c3        1 705     -0.094100
     42 H26        10.4120    2.9820    4.1880 ha        1 705      0.164500
     43 H25         9.4170    1.1590    2.8100 ha        1 705      0.139000
     44 H28         7.5900    5.8050    2.4850 ha        1 705      0.164500
     45 H27         6.5960    3.9770    1.1110 ha        1 705      0.139000
     46 H21         7.1970    2.5990   -0.7180 ha        1 705      0.175000
     47 H23         7.4090   -0.0780    2.6840 ha        1 705      0.170000
     48 HO34        6.6500   -2.2430    2.2320 ho        1 705      0.457000
     49 HO32        5.6800   -2.5060   -0.7520 ho        1 705      0.483000
     50 HN17        4.4730    0.8470   -3.6760 hn        1 705      0.474300
     51 H16         6.3770   -0.1110   -4.8620 hx        1 705      0.113200
     52 H16A        6.3540   -1.4740   -3.6280 hx        1 705      0.113200
     53 H15         4.6880   -2.5650   -4.8400 ha        1 705      0.165000
     54 H14         3.2560   -1.5800   -6.5630 ha        1 705      0.174000
     55 H6          4.7890    1.0530   -6.0200 h1        1 705      0.078700
     56 H4          1.9580    0.4260   -5.0750 h1        1 705      0.085700
     57 HO5         3.0230    2.9510   -4.8020 ho        1 705      0.457000
     58 H2          0.7500    1.8980   -6.5410 h1        1 705      0.130700
     59 HO3         3.0510    3.3900   -7.1660 ho        1 705      0.422000
     60 H1          2.5090    1.9230   -8.8460 h2        1 705      0.148700
     61 H9          0.7880   -0.7940   -6.5750 h5        1 705      0.057800
     62 H39         1.6500    0.1260  -13.0130 h5        1 705      0.063100
     63 HN7        -0.8750   -3.5940  -10.1530 hn        1 705      0.457800
     64 H36        -0.0590   -4.1260  -12.8480 h1        1 705      0.062200
     65 H36A       -1.5830   -3.1320  -12.8540 h1        1 705      0.062200
     66 H37        -2.7210   -4.8770  -11.4100 hc        1 705      0.047700
     67 H37A       -1.2070   -5.8670  -11.4090 hc        1 705      0.047700
     68 H41        -2.8120   -5.0160  -13.9220 hc        1 705      0.043367
     69 H41A       -1.2960   -6.0070  -13.9220 hc        1 705      0.043367
     70 H41B       -2.8030   -6.6560  -13.1520 hc        1 705      0.043367
     71 H172        4.5310   -0.3760   -2.5300 hn        1 705      0.474300
@<TRIPOS>BOND
     1    1    2 1   
     2    2    3 ar  
     3    2    5 ar  
     4    3    4 ar  
     5    3   42 1   
     6    4    7 ar  
     7    4   43 1   
     8    5    6 ar  
     9    5   44 1   
    10    6    7 ar  
    11    6   45 1   
    12    7    8 1   
    13    8    9 ar  
    14    8   10 ar  
    15    9   15 ar  
    16    9   46 1   
    17   10   11 ar  
    18   10   47 1   
    19   11   12 1   
    20   11   13 ar  
    21   12   48 1   
    22   13   14 1   
    23   13   15 ar  
    24   14   49 1   
    25   15   16 1   
    26   16   17 2   
    27   16   18 1   
    28   18   19 1   
    29   18   50 1   
    30   18   71 1   
    31   19   20 1   
    32   19   51 1   
    33   19   52 1   
    34   20   21 2   
    35   20   53 1   
    36   21   22 1   
    37   21   54 1   
    38   22   23 1   
    39   22   27 1   
    40   22   55 1   
    41   23   24 1   
    42   23   25 1   
    43   23   56 1   
    44   24   57 1   
    45   25   26 1   
    46   25   28 1   
    47   25   58 1   
    48   26   59 1   
    49   27   28 1   
    50   28   29 1   
    51   28   60 1   
    52   29   30 1   
    53   29   31 1   
    54   30   37 2   
    55   30   61 1   
    56   31   32 ar  
    57   31   36 ar  
    58   32   33 ar  
    59   33   34 ar  
    60   33   62 1   
    61   34   35 ar  
    62   35   36 ar  
    63   35   38 1   
    64   36   37 1   
    65   38   39 1   
    66   38   63 1   
    67   39   40 1   
    68   39   64 1   
    69   39   65 1   
    70   40   41 1   
    71   40   66 1   
    72   40   67 1   
    73   41   68 1   
    74   41   69 1   
    75   41   70 1   
@<TRIPOS>SUBSTRUCTURE
     1 705         1 TEMP              0 ****  ****    0 ROOT
