@<TRIPOS>MOLECULE
705
   70    74     1     0     0
SMALL
bcc


@<TRIPOS>ATOM
      1 F30         0.1220   -6.8510   -0.0980 f         1 705     -0.139900
      2 C29         0.8250   -5.6940   -0.0520 ca        1 705      0.129900
      3 C26         2.2300   -5.7290    0.0160 ca        1 705     -0.168000
      4 C25         2.9430   -4.5360    0.0610 ca        1 705     -0.092500
      5 C28         0.1490   -4.4610   -0.0720 ca        1 705     -0.168000
      6 C27         0.8770   -3.2770   -0.0260 ca        1 705     -0.092500
      7 C24         2.2780   -3.3010    0.0390 cp        1 705     -0.054000
      8 C22         3.0370   -2.0530    0.0800 cp        1 705     -0.039000
      9 C21         2.6640   -0.9770   -0.7300 ca        1 705     -0.098000
     10 C23         4.1450   -1.9350    0.9320 ca        1 705     -0.106000
     11 C33         4.8730   -0.7450    0.9540 ca        1 705      0.098100
     12 O34         5.9470   -0.6790    1.8090 oh        1 705     -0.492100
     13 C31         4.4970    0.3460    0.1300 ca        1 705      0.110100
     14 O32         5.2800    1.4650    0.2610 oh        1 705     -0.527100
     15 C20         3.3720    0.2310   -0.7020 ca        1 705     -0.185600
     16 C18         2.9620    1.3830   -1.5530 c         1 705      0.681700
     17 O19         3.8050    2.2000   -1.9950 o         1 705     -0.641100
     18 N17         1.6230    1.5320   -1.8360 n         1 705     -0.558900
     19 C16         1.1040    2.6320   -2.6040 c3        1 705      0.112200
     20 C15         0.0990    3.4730   -1.8790 c2        1 705     -0.147200
     21 C14         0.2470    3.9110   -0.6270 c2        1 705     -0.214200
     22 C6         -0.7780    4.7560    0.0530 c3        1 705      0.131300
     23 C4         -0.6580    4.7200    1.5930 c3        1 705      0.080100
     24 O5         -0.4650    6.0050    2.1500 oh        1 705     -0.595800
     25 C2         -2.0130    4.1790    2.1060 c3        1 705      0.126100
     26 O3         -2.8660    5.1570    2.6570 oh        1 705     -0.580800
     27 O13        -2.1060    4.3290   -0.2900 os        1 705     -0.397600
     28 C1         -2.7400    3.6710    0.8150 c3        1 705      0.243800
     29 N10        -2.6970    2.2370    0.6730 na        1 705     -0.282000
     30 C9         -1.5540    1.3970    0.7080 cc        1 705      0.400700
     31 C11        -3.7660    1.4070    0.2920 ca        1 705      0.474800
     32 N40        -5.0890    1.6870    0.0960 nb        1 705     -0.729000
     33 C39        -5.8080    0.5880   -0.2360 ca        1 705      0.687900
     34 N38        -5.4160   -0.7040   -0.3900 nb        1 705     -0.786000
     35 C35        -4.0850   -0.9940   -0.2010 ca        1 705      0.756200
     36 C12        -3.1920    0.0730    0.1560 ca        1 705     -0.235200
     37 N8         -1.8130    0.1150    0.4190 nd        1 705     -0.554100
     38 N7         -3.5900   -2.2660   -0.3820 nh        1 705     -0.855900
     39 C36        -4.4550   -3.4000   -0.5880 c3        1 705      0.211800
     40 C37        -3.6980   -4.7270   -0.6390 c3        1 705     -0.097400
     41 C41        -4.6600   -5.8580   -0.8950 c3        1 705     -0.092100
     42 H26         2.7510   -6.6970    0.0300 ha        1 705      0.148500
     43 H25         4.0430   -4.5620    0.1090 ha        1 705      0.146500
     44 H28        -0.9510   -4.4430   -0.1250 ha        1 705      0.148500
     45 H27         0.3440   -2.3120   -0.0300 ha        1 705      0.146500
     46 H21         1.8090   -1.1060   -1.4130 ha        1 705      0.145000
     47 H23         4.4500   -2.7670    1.5850 ha        1 705      0.161000
     48 HO34        6.3990    0.1680    1.6630 ho        1 705      0.442000
     49 HO32        5.1830    2.0210   -0.5320 ho        1 705      0.470000
     50 HN17        0.9640    0.9200   -1.4170 hn        1 705      0.323500
     51 H16         1.9620    3.2900   -2.9360 h1        1 705      0.076700
     52 H16A        0.6170    2.2070   -3.5310 h1        1 705      0.076700
     53 H15        -0.8060    3.7210   -2.4620 ha        1 705      0.150000
     54 H14         1.1530    3.6930   -0.0380 ha        1 705      0.129000
     55 H6         -0.7140    5.8170   -0.3250 h1        1 705      0.092700
     56 H4          0.1780    4.0430    1.9190 h1        1 705      0.055700
     57 HO5         0.3350    6.3700    1.7530 ho        1 705      0.423000
     58 H2         -1.8500    3.3680    2.8640 h1        1 705      0.069700
     59 HO3        -2.3250    5.7820    3.1590 ho        1 705      0.436000
     60 H1         -3.8190    4.0140    0.7870 h2        1 705      0.150700
     61 H9         -0.5680    1.8100    0.9540 h5        1 705      0.067800
     62 H39        -6.8920    0.7660   -0.4070 h5        1 705      0.054100
     63 HN7        -2.6590   -2.4360   -0.0780 hn        1 705      0.445800
     64 H36        -5.2270   -3.4520    0.2360 h1        1 705      0.057200
     65 H36A       -5.0100   -3.2510   -1.5590 h1        1 705      0.057200
     66 H37        -2.9240   -4.6990   -1.4510 hc        1 705      0.045700
     67 H37A       -3.1620   -4.9020    0.3320 hc        1 705      0.045700
     68 H41        -4.1090   -6.8290   -0.9280 hc        1 705      0.040367
     69 H41A       -5.4290   -5.9150   -0.0860 hc        1 705      0.040367
     70 H41B       -5.1860   -5.7160   -1.8700 hc        1 705      0.040367
@<TRIPOS>BOND
     1    1    2 1   
     2    2    3 ar  
     3    2    5 ar  
     4    3    4 ar  
     5    3   42 1   
     6    4    7 ar  
     7    4   43 1   
     8    5    6 ar  
     9    5   44 1   
    10    6    7 ar  
    11    6   45 1   
    12    7    8 1   
    13    8    9 ar  
    14    8   10 ar  
    15    9   15 ar  
    16    9   46 1   
    17   10   11 ar  
    18   10   47 1   
    19   11   12 1   
    20   11   13 ar  
    21   12   48 1   
    22   13   14 1   
    23   13   15 ar  
    24   14   49 1   
    25   15   16 1   
    26   16   17 2   
    27   16   18 1   
    28   18   19 1   
    29   18   50 1   
    30   19   20 1   
    31   19   51 1   
    32   19   52 1   
    33   20   21 2   
    34   20   53 1   
    35   21   22 1   
    36   21   54 1   
    37   22   23 1   
    38   22   27 1   
    39   22   55 1   
    40   23   24 1   
    41   23   25 1   
    42   23   56 1   
    43   24   57 1   
    44   25   26 1   
    45   25   28 1   
    46   25   58 1   
    47   26   59 1   
    48   27   28 1   
    49   28   29 1   
    50   28   60 1   
    51   29   30 1   
    52   29   31 1   
    53   30   37 2   
    54   30   61 1   
    55   31   32 ar  
    56   31   36 ar  
    57   32   33 ar  
    58   33   34 ar  
    59   33   62 1   
    60   34   35 ar  
    61   35   36 ar  
    62   35   38 1   
    63   36   37 1   
    64   38   39 1   
    65   38   63 1   
    66   39   40 1   
    67   39   64 1   
    68   39   65 1   
    69   40   41 1   
    70   40   66 1   
    71   40   67 1   
    72   41   68 1   
    73   41   69 1   
    74   41   70 1   
@<TRIPOS>SUBSTRUCTURE
     1 705         1 TEMP              0 ****  ****    0 ROOT
