@<TRIPOS>MOLECULE
705
   71    75     1     0     0
SMALL
bcc


@<TRIPOS>ATOM
      1 F30         8.0710    6.4630    4.2730 f         1 705     -0.119900
      2 C29         7.8560    5.3680    3.5120 ca        1 705      0.159900
      3 C26         8.6680    4.2280    3.6740 ca        1 705     -0.162500
      4 C25         8.4370    3.1060    2.8880 ca        1 705     -0.082500
      5 C28         6.8200    5.3690    2.5570 ca        1 705     -0.162500
      6 C27         6.6070    4.2390    1.7770 ca        1 705     -0.082500
      7 C24         7.4090    3.0990    1.9340 cp        1 705     -0.096000
      8 C22         7.1760    1.9150    1.1110 cp        1 705      0.001000
      9 C21         6.8940    2.0450   -0.2500 ca        1 705     -0.060000
     10 C23         7.2420    0.6340    1.6840 ca        1 705     -0.107000
     11 C33         7.0260   -0.4910    0.8910 ca        1 705      0.059100
     12 O34         7.0700   -1.7860    1.3590 oh        1 705     -0.509100
     13 C31         6.7360   -0.3660   -0.4880 ca        1 705      0.148100
     14 O32         6.5380   -1.4690   -1.2810 oh        1 705     -0.541100
     15 C20         6.6620    0.9160   -1.0610 ca        1 705     -0.197600
     16 C18         6.3980    1.1870   -2.4740 c         1 705      0.585700
     17 O19         6.7280    2.1860   -3.1060 o         1 705     -0.441100
     18 N17         5.5920    0.1820   -3.2610 n4        1 705     -0.677800
     19 C16         6.4630   -0.5630   -4.2280 c3        1 705      0.157000
     20 C15         5.7040   -1.5260   -5.0720 c2        1 705     -0.235200
     21 C14         4.8570   -1.2040   -6.0540 c2        1 705     -0.106200
     22 C6          4.4440    0.1820   -6.4180 c3        1 705      0.109300
     23 C4          3.1030    0.5690   -5.7420 c3        1 705      0.117100
     24 O5          3.3210    1.5220   -4.7260 oh        1 705     -0.632800
     25 C2          2.1890    1.0390   -6.8910 c3        1 705      0.094100
     26 O3          2.1650    2.4500   -6.8810 oh        1 705     -0.605800
     27 O13         4.2800    0.2810   -7.8360 os        1 705     -0.390600
     28 C1          2.9130    0.5560   -8.1900 c3        1 705      0.237800
     29 N10         2.3140   -0.6120   -8.7840 na        1 705     -0.314000
     30 C9          2.9810   -1.7480   -9.3220 cc        1 705      0.405700
     31 C11         0.9820   -0.7000   -9.2310 ca        1 705      0.459800
     32 N40        -0.0780    0.1390   -9.0370 nb        1 705     -0.779000
     33 C39        -1.2110   -0.3170   -9.6300 ca        1 705      0.702900
     34 N38        -1.4290   -1.4420  -10.3520 nb        1 705     -0.782000
     35 C35        -0.3630   -2.2980  -10.5500 ca        1 705      0.772200
     36 C12         0.9120   -1.9430   -9.9830 ca        1 705     -0.235200
     37 N8          2.1730   -2.5590  -10.0130 nd        1 705     -0.524100
     38 N7         -0.4970   -3.4640  -11.2490 nh        1 705     -0.846900
     39 C36        -1.7300   -3.8580  -11.8850 c3        1 705      0.212800
     40 C37        -1.6160   -5.1870  -12.6320 c3        1 705     -0.096400
     41 C41        -2.9390   -5.5330  -13.2650 c3        1 705     -0.094100
     42 H26         9.4770    4.2380    4.4190 ha        1 705      0.164500
     43 H25         9.0800    2.2200    3.0110 ha        1 705      0.139000
     44 H28         6.1890    6.2630    2.4390 ha        1 705      0.164500
     45 H27         5.7930    4.2410    1.0360 ha        1 705      0.139000
     46 H21         6.8610    3.0500   -0.7090 ha        1 705      0.175000
     47 H23         7.4590    0.5210    2.7600 ha        1 705      0.170000
     48 HO34        7.3010   -1.7660    2.3010 ho        1 705      0.456000
     49 HO32        6.6700   -2.2720   -0.7450 ho        1 705      0.482000
     50 HN17        4.8580    0.6870   -3.7880 hn        1 705      0.474300
     51 H16         6.9860    0.2070   -4.8700 hx        1 705      0.113200
     52 H16A        7.2380   -1.1130   -3.6160 hx        1 705      0.113200
     53 H15         5.9370   -2.5860   -4.8690 ha        1 705      0.164000
     54 H14         4.4060   -1.9960   -6.6820 ha        1 705      0.169000
     55 H6          5.2480    0.9320   -6.1640 h1        1 705      0.080700
     56 H4          2.6410   -0.3140   -5.2200 h1        1 705      0.093700
     57 HO5         3.3050    2.4110   -5.1140 ho        1 705      0.461000
     58 H2          1.1570    0.6150   -6.7770 h1        1 705      0.111700
     59 HO3         1.3490    2.7270   -7.3200 ho        1 705      0.450000
     60 H1          2.9710    1.3930   -8.9520 h2        1 705      0.117700
     61 H9          4.0550   -1.8930   -9.1570 h5        1 705      0.079800
     62 H39        -2.1050    0.3360   -9.5090 h5        1 705      0.058100
     63 HN7         0.3180   -4.0120  -11.4050 hn        1 705      0.459800
     64 H36        -2.0510   -3.0530  -12.6090 h1        1 705      0.061200
     65 H36A       -2.5340   -3.9440  -11.0970 h1        1 705      0.061200
     66 H37        -1.3100   -6.0020  -11.9250 hc        1 705      0.048700
     67 H37A       -0.8260   -5.1160  -13.4260 hc        1 705      0.048700
     68 H41        -3.7360   -5.6300  -12.4880 hc        1 705      0.042700
     69 H41A       -3.2500   -4.7430  -13.9910 hc        1 705      0.042700
     70 H41B       -2.8580   -6.5030  -13.8120 hc        1 705      0.042700
     71 H172        5.1450   -0.4880   -2.6250 hn        1 705      0.474300
@<TRIPOS>BOND
     1    1    2 1   
     2    2    3 ar  
     3    2    5 ar  
     4    3    4 ar  
     5    3   42 1   
     6    4    7 ar  
     7    4   43 1   
     8    5    6 ar  
     9    5   44 1   
    10    6    7 ar  
    11    6   45 1   
    12    7    8 1   
    13    8    9 ar  
    14    8   10 ar  
    15    9   15 ar  
    16    9   46 1   
    17   10   11 ar  
    18   10   47 1   
    19   11   12 1   
    20   11   13 ar  
    21   12   48 1   
    22   13   14 1   
    23   13   15 ar  
    24   14   49 1   
    25   15   16 1   
    26   16   17 2   
    27   16   18 1   
    28   18   19 1   
    29   18   50 1   
    30   18   71 1   
    31   19   20 1   
    32   19   51 1   
    33   19   52 1   
    34   20   21 2   
    35   20   53 1   
    36   21   22 1   
    37   21   54 1   
    38   22   23 1   
    39   22   27 1   
    40   22   55 1   
    41   23   24 1   
    42   23   25 1   
    43   23   56 1   
    44   24   57 1   
    45   25   26 1   
    46   25   28 1   
    47   25   58 1   
    48   26   59 1   
    49   27   28 1   
    50   28   29 1   
    51   28   60 1   
    52   29   30 1   
    53   29   31 1   
    54   30   37 2   
    55   30   61 1   
    56   31   32 ar  
    57   31   36 ar  
    58   32   33 ar  
    59   33   34 ar  
    60   33   62 1   
    61   34   35 ar  
    62   35   36 ar  
    63   35   38 1   
    64   36   37 1   
    65   38   39 1   
    66   38   63 1   
    67   39   40 1   
    68   39   64 1   
    69   39   65 1   
    70   40   41 1   
    71   40   66 1   
    72   40   67 1   
    73   41   68 1   
    74   41   69 1   
    75   41   70 1   
@<TRIPOS>SUBSTRUCTURE
     1 705         1 TEMP              0 ****  ****    0 ROOT
