@<TRIPOS>MOLECULE
705
   70    62     1     0     0
SMALL
bcc


@<TRIPOS>ATOM
      1 F30       -10.1850    0.9290   -6.5060 f         1 705     -0.104000
      2 C29        -9.3690    1.0600   -5.4420 c2        1 705      0.095000
      3 C26        -9.7780    0.5940   -4.1960 c2        1 705     -0.167000
      4 C25        -9.0180    0.8770   -3.0610 c1        1 705     -0.096000
      5 C28        -8.1990    1.8080   -5.5540 c1        1 705     -0.164000
      6 C27        -7.4340    2.0930   -4.4100 c1        1 705     -0.116000
      7 C24        -7.8430    1.6290   -3.1740 c1        1 705     -0.047500
      8 C22        -7.0920    1.9300   -2.0320 c1        1 705     -0.047500
      9 C21        -6.0850    1.0720   -1.6210 c1        1 705     -0.068000
     10 C23        -7.3210    3.1230   -1.3370 c1        1 705     -0.116000
     11 C33        -6.5360    3.4460   -0.2310 c1        1 705     -0.011000
     12 O34        -6.7070    4.7100    0.4290 oh        1 705     -0.272000
     13 C31        -5.5190    2.5760    0.1830 c1        1 705      0.095000
     14 O32        -4.7880    2.8520    1.3690 o         1 705     -0.260000
     15 C20        -5.2930    1.3970   -0.5050 c2        1 705     -0.122000
     16 C18        -4.1190    0.5000   -0.1160 c2        1 705      0.348000
     17 O19        -3.8720   -0.4950   -0.7740 o         1 705     -0.367000
     18 N17        -3.3960    0.7460    1.1450 n         1 705     -0.347000
     19 C16        -2.1490    0.0800    1.4010 c3        1 705     -0.023000
     20 C15        -1.2190    1.0210    2.2510 c2        1 705     -0.176000
     21 C14         0.0350    0.5700    2.6720 c1        1 705     -0.178000
     22 C6          0.4920   -0.8030    2.3150 c2        1 705      0.053000
     23 C4          0.8690   -1.6170    3.6520 c3        1 705     -0.027000
     24 O5         -0.0210   -2.6440    3.8480 oh        1 705     -0.327000
     25 C2          2.2440   -2.1610    3.4390 c3        1 705     -0.019000
     26 O3          2.2820   -3.6600    3.7830 oh        1 705     -0.314000
     27 O13         1.6430   -0.7340    1.7170 os        1 705     -0.273000
     28 C1          2.4920   -1.9850    2.1830 c3        1 705      0.129000
     29 N10         3.9110   -1.7220    1.9900 n3        1 705     -0.199000
     30 C9          4.8200   -2.2960    2.8220 c1        1 705     -0.038000
     31 C11         4.5750   -1.2300    0.9190 c1        1 705      0.072000
     32 N40         4.1560   -0.5570   -0.1710 n1        1 705     -0.229000
     33 C39         5.0550   -0.1460   -1.1090 c1        1 705      0.025000
     34 N38         6.3860   -0.4150   -0.9470 n1        1 705     -0.266000
     35 C35         6.8040   -1.0790    0.1290 c1        1 705      0.244000
     36 C12         5.8860   -1.4970    1.0840 c1        1 705     -0.242000
     37 N8          6.0350   -2.1590    2.2670 n1        1 705     -0.115000
     38 N7          8.2300   -1.4420    0.0990 n3        1 705     -0.306000
     39 C36         9.1560   -0.6460   -0.6600 c3        1 705     -0.017000
     40 C37        10.4470   -1.5100   -0.9990 c3        1 705     -0.176000
     41 C41        11.2130   -0.8550   -2.1190 c3        1 705     -0.210000
     42 H26       -10.5990    0.0680   -4.1160 ha        1 705      0.150000
     43 H25        -9.3100    0.5450   -2.1770 ha        1 705      0.138000
     44 H28        -7.9110    2.1370   -6.4290 ha        1 705      0.153000
     45 H27        -6.5630    2.6500   -4.4930 ha        1 705      0.146000
     46 H21        -5.9240    0.2380   -2.1060 ha        1 705      0.166000
     47 H23        -8.0660    3.7420   -1.6250 ha        1 705      0.146000
     48 HO34       -7.4890    4.7120    0.8790 ho        1 705      0.233000
     49 HO32       -5.3450    2.9200    2.0480 ho        1 705      0.249000
     50 HN17       -3.7720    1.2620    1.7870 hn        1 705      0.232000
     51 H16        -1.7000   -0.1360    0.5310 h1        1 705      0.120000
     52 H16A       -2.3120   -0.7240    1.8830 h1        1 705      0.120000
     53 H15        -1.5210    1.9290    2.4870 ha        1 705      0.137000
     54 H14         0.6080    1.1510    3.1940 ha        1 705      0.145000
     55 H6         -0.2620   -1.1200    1.7970 h4        1 705      0.137000
     56 H4          0.8610   -1.0130    4.4270 h1        1 705      0.128000
     57 HO5        -0.2730   -2.6650    4.7190 ho        1 705      0.218000
     58 H2          2.9060   -1.6600    3.9970 h1        1 705      0.163000
     59 HO3         2.2840   -3.7650    4.6950 ho        1 705      0.218000
     60 H1          2.2270   -2.7790    1.6730 h2        1 705      0.141000
     61 H9          4.6370   -2.6730    3.6720 DU        1 705      0.206000
     62 H39         4.7520    0.3350   -1.8890 ha        1 705      0.186000
     63 HN7         8.5140   -2.2160    0.5040 hn        1 705      0.254000
     64 H36         9.4170    0.1470   -0.1330 h1        1 705      0.093500
     65 H36A        8.7240   -0.3550   -1.5050 h1        1 705      0.093500
     66 H37        10.1830   -2.3720   -1.2670 hc        1 705      0.087000
     67 H37A       11.0330   -1.5760   -0.1850 hc        1 705      0.087000
     68 H41        12.0160   -1.3630   -2.3000 hc        1 705      0.078333
     69 H41A       10.6420   -0.8290   -2.9390 hc        1 705      0.078333
     70 H41B       11.4550    0.0520   -1.8620 hc        1 705      0.078333
@<TRIPOS>BOND
     1    1    2 1   
     2    2    3 1   
     3    2    5 1   
     4    3    4 1   
     5    3   42 1   
     6    4   43 1   
     7    5   44 1   
     8    6    7 1   
     9    6   45 1   
    10    8   10 1   
    11    9   15 1   
    12    9   46 1   
    13   10   47 1   
    14   11   12 1   
    15   11   13 1   
    16   12   48 1   
    17   13   15 1   
    18   14   49 1   
    19   15   16 1   
    20   16   17 1   
    21   16   18 1   
    22   18   19 1   
    23   18   50 1   
    24   19   20 1   
    25   19   51 1   
    26   19   52 1   
    27   20   21 1   
    28   20   53 1   
    29   21   54 1   
    30   22   23 1   
    31   22   27 1   
    32   22   55 1   
    33   23   24 1   
    34   23   25 1   
    35   23   56 1   
    36   24   57 1   
    37   25   26 1   
    38   25   28 1   
    39   25   58 1   
    40   26   59 1   
    41   27   28 1   
    42   28   29 1   
    43   28   60 1   
    44   29   30 1   
    45   29   31 1   
    46   30   37 1   
    47   31   36 1   
    48   32   33 1   
    49   33   62 1   
    50   34   35 1   
    51   35   38 1   
    52   38   39 1   
    53   38   63 1   
    54   39   40 1   
    55   39   64 1   
    56   39   65 1   
    57   40   41 1   
    58   40   66 1   
    59   40   67 1   
    60   41   68 1   
    61   41   69 1   
    62   41   70 1   
@<TRIPOS>SUBSTRUCTURE
     1 705         1 TEMP              0 ****  ****    0 ROOT
