@<TRIPOS>MOLECULE
705
   72    76     1     0     0
SMALL
bcc


@<TRIPOS>ATOM
      1 F30         7.9160    6.4440    4.2440 f         1 705     -0.114900
      2 C29         7.7830    5.3050    3.5330 ca        1 705      0.166900
      3 C26         8.8660    4.4090    3.4290 ca        1 705     -0.161500
      4 C25         8.7180    3.2380    2.6970 ca        1 705     -0.080500
      5 C28         6.5610    5.0130    2.8950 ca        1 705     -0.161500
      6 C27         6.4330    3.8400    2.1620 ca        1 705     -0.080500
      7 C24         7.5050    2.9420    2.0560 cp        1 705     -0.104000
      8 C22         7.3610    1.7090    1.2880 cp        1 705      0.008000
      9 C21         6.6950    1.7150    0.0610 ca        1 705     -0.059000
     10 C23         7.8970    0.5050    1.7770 ca        1 705     -0.099000
     11 C33         7.7620   -0.6650    1.0330 ca        1 705      0.062100
     12 O34         8.2520   -1.8900    1.4240 oh        1 705     -0.509100
     13 C31         7.0870   -0.6660   -0.2110 ca        1 705      0.148100
     14 O32         6.9710   -1.8150   -0.9530 oh        1 705     -0.551100
     15 C20         6.5420    0.5360   -0.7010 ca        1 705     -0.200600
     16 C18         5.8350    0.6970   -1.9670 c         1 705      0.590700
     17 O19         5.5700    1.7490   -2.5410 o         1 705     -0.455100
     18 N17         5.3060   -0.5290   -2.6830 n4        1 705     -0.677800
     19 C16         6.2360   -0.9460   -3.7790 c3        1 705      0.149000
     20 C15         5.6420   -1.9690   -4.6860 c2        1 705     -0.208200
     21 C14         4.7940   -1.7240   -5.6890 c2        1 705     -0.113200
     22 C6          4.2140   -0.3930   -6.0180 c3        1 705      0.117300
     23 C4          2.8180   -0.1880   -5.3840 c3        1 705      0.120100
     24 O5          2.9120    0.5490   -4.1910 oh        1 705     -0.615800
     25 C2          1.9740    0.4840   -6.4880 c3        1 705      0.092100
     26 O3          1.9090    1.8640   -6.2090 oh        1 705     -0.589800
     27 O13         4.0710   -0.2900   -7.4470 os        1 705     -0.402600
     28 C1          2.8130    0.3000   -7.7960 c3        1 705      0.227800
     29 N10         2.1810   -0.5350   -8.8040 na        1 705     -0.282000
     30 C9          2.7970   -1.5400   -9.5880 cc        1 705      0.513700
     31 C11         0.9290   -0.2910   -9.3900 ca        1 705      0.449800
     32 N40        -0.0670    0.5730   -9.0740 nb        1 705     -0.653000
     33 C39        -1.1390    0.5020   -9.9060 ca        1 705      0.681900
     34 N38        -1.3270   -0.3100  -10.9860 nb        1 705     -0.674000
     35 C35        -0.3270   -1.1740  -11.2950 ca        1 705      0.550200
     36 C12         0.8540   -1.2340  -10.5290 ca        1 705     -0.132200
     37 N8          2.0340   -1.9850  -10.6010 nd        1 705     -0.572100
     38 N7         -0.4760   -2.0560  -12.4700 n4        1 705     -0.747700
     39 C36        -1.5950   -3.0440  -12.3030 c3        1 705      0.107800
     40 C37        -1.6880   -4.0000  -13.4870 c3        1 705     -0.108400
     41 C41        -2.8300   -4.9600  -13.2580 c3        1 705     -0.101100
     42 H26         9.8180    4.6460    3.9290 ha        1 705      0.166500
     43 H25         9.5690    2.5450    2.6120 ha        1 705      0.138000
     44 H28         5.7190    5.7170    2.9850 ha        1 705      0.166500
     45 H27         5.4740    3.6120    1.6720 ha        1 705      0.138000
     46 H21         6.2850    2.6630   -0.3320 ha        1 705      0.176000
     47 H23         8.4200    0.4890    2.7480 ha        1 705      0.175000
     48 HO34        8.6940   -1.7880    2.2820 ho        1 705      0.461000
     49 HO32        7.4030   -2.5470   -0.4750 ho        1 705      0.487000
     50 HN17        4.3850   -0.2980   -3.0900 hn        1 705      0.472300
     51 H16         7.1680   -1.3590   -3.2880 hx        1 705      0.117700
     52 H16A        6.5190   -0.0150   -4.3560 hx        1 705      0.117700
     53 H15         6.0060   -2.9990   -4.5110 ha        1 705      0.169000
     54 H14         4.4770   -2.5460   -6.3570 ha        1 705      0.161000
     55 H6          4.9030    0.4490   -5.7160 h1        1 705      0.086700
     56 H4          2.3580   -1.1710   -5.0850 h1        1 705      0.102700
     57 HO5         2.9390    1.4980   -4.3980 ho        1 705      0.460000
     58 H2          0.9560    0.0210   -6.5500 h1        1 705      0.096700
     59 HO3         1.0370    2.1850   -6.4790 ho        1 705      0.451000
     60 H1          3.0440    1.3100   -8.2610 h2        1 705      0.124700
     61 H9          3.8150   -1.8960   -9.3500 h5        1 705      0.116800
     62 H39        -1.9810    1.2010   -9.6860 h5        1 705      0.103100
     63 HN7         0.4090   -2.5630  -12.6150 hn        1 705      0.474300
     64 H36        -2.5580   -2.4650  -12.1950 hx        1 705      0.115200
     65 H36A       -1.4070   -3.6180  -11.3520 hx        1 705      0.115200
     66 H37        -0.7320   -4.5760  -13.6030 hc        1 705      0.068700
     67 H37A       -1.8640   -3.4300  -14.4380 hc        1 705      0.068700
     68 H41        -2.6690   -5.5610  -12.3310 hc        1 705      0.064033
     69 H41A       -2.9040   -5.6630  -14.1250 hc        1 705      0.064033
     70 H41B       -3.8010   -4.4140  -13.1670 hc        1 705      0.064033
     71 H172        5.1950   -1.3050   -2.0180 hn        1 705      0.472300
     72 H72        -0.6630   -1.4780  -13.3030 hn        1 705      0.474300
@<TRIPOS>BOND
     1    1    2 1   
     2    2    3 ar  
     3    2    5 ar  
     4    3    4 ar  
     5    3   42 1   
     6    4    7 ar  
     7    4   43 1   
     8    5    6 ar  
     9    5   44 1   
    10    6    7 ar  
    11    6   45 1   
    12    7    8 1   
    13    8    9 ar  
    14    8   10 ar  
    15    9   15 ar  
    16    9   46 1   
    17   10   11 ar  
    18   10   47 1   
    19   11   12 1   
    20   11   13 ar  
    21   12   48 1   
    22   13   14 1   
    23   13   15 ar  
    24   14   49 1   
    25   15   16 1   
    26   16   17 2   
    27   16   18 1   
    28   18   19 1   
    29   18   50 1   
    30   18   71 1   
    31   19   20 1   
    32   19   51 1   
    33   19   52 1   
    34   20   21 2   
    35   20   53 1   
    36   21   22 1   
    37   21   54 1   
    38   22   23 1   
    39   22   27 1   
    40   22   55 1   
    41   23   24 1   
    42   23   25 1   
    43   23   56 1   
    44   24   57 1   
    45   25   26 1   
    46   25   28 1   
    47   25   58 1   
    48   26   59 1   
    49   27   28 1   
    50   28   29 1   
    51   28   60 1   
    52   29   30 1   
    53   29   31 1   
    54   30   37 2   
    55   30   61 1   
    56   31   32 ar  
    57   31   36 ar  
    58   32   33 ar  
    59   33   34 ar  
    60   33   62 1   
    61   34   35 ar  
    62   35   36 ar  
    63   35   38 1   
    64   36   37 1   
    65   38   39 1   
    66   38   63 1   
    67   38   72 1   
    68   39   40 1   
    69   39   64 1   
    70   39   65 1   
    71   40   41 1   
    72   40   66 1   
    73   40   67 1   
    74   41   68 1   
    75   41   69 1   
    76   41   70 1   
@<TRIPOS>SUBSTRUCTURE
     1 705         1 TEMP              0 ****  ****    0 ROOT
