@<TRIPOS>MOLECULE
706
   53    56     1     0     0
SMALL
bcc


@<TRIPOS>ATOM
      1 C2          1.4840    0.9420    1.9680 c3        1 706     -0.093100
      2 C1          2.5540    0.4580    1.0090 c3        1 706     -0.018700
      3 C3          2.3240   -0.9960    0.6500 c3        1 706     -0.093100
      4 C28         3.9800    0.6530    1.6380 c3        1 706      0.177800
      5 N27         4.6940    1.6300    0.8100 nh        1 706     -0.719600
      6 C26         3.9290    1.9340   -0.3040 ca        1 706      0.195600
      7 C22         4.2530    2.7730   -1.3740 ca        1 706     -0.229000
      8 C25         2.6200    1.3260   -0.2260 ca        1 706     -0.066300
      9 C23         1.6730    1.5700   -1.1910 ca        1 706     -0.061000
     10 C24         1.9800    2.4210   -2.2690 ca        1 706     -0.141000
     11 C13         3.2470    3.0040   -2.3410 ca        1 706     -0.042400
     12 N12         3.5870    3.8490   -3.5000 n4        1 706     -0.521200
     13 C10         2.6420    5.0030   -3.6700 c         1 706      0.575700
     14 O11         1.8170    4.8620   -4.5740 o         1 706     -0.473100
     15 C8          2.7730    6.1870   -2.8140 ca        1 706     -0.286900
     16 C9          3.5580    6.1770   -1.6440 ca        1 706     -0.029000
     17 C4          3.6590    7.3210   -0.8560 ca        1 706     -0.191300
     18 C5          2.9560    8.4750   -1.2540 ca        1 706      0.505200
     19 N6          2.1810    8.5160   -2.3530 nb        1 706     -0.636000
     20 C7          2.0760    7.4040   -3.1180 ca        1 706      0.557200
     21 N14         1.1910    7.4820   -4.3020 n4        1 706     -0.762700
     22 C15         0.5490    8.8280   -4.5760 c3        1 706      0.191100
     23 C16        -0.2850    8.7310   -5.8060 ca        1 706     -0.164300
     24 C17        -1.6310    8.3550   -5.7210 ca        1 706     -0.223800
     25 C18        -2.3930    8.3380   -6.9060 ca        1 706      0.423200
     26 N19        -1.8910    8.6610   -8.1130 nb        1 706     -0.598000
     27 C20        -0.5970    9.0260   -8.1780 ca        1 706      0.423200
     28 C21         0.2510    9.0750   -7.0530 ca        1 706     -0.223800
     29 H2          1.4950    0.3170    2.8940 hc        1 706      0.057367
     30 H2A         1.6580    2.0070    2.2550 hc        1 706      0.057367
     31 H2B         0.4760    0.8560    1.4950 hc        1 706      0.057367
     32 H3          2.3460   -1.6230    1.5750 hc        1 706      0.057367
     33 H3A         3.1120   -1.3650   -0.0490 hc        1 706      0.057367
     34 H3B         1.3260   -1.1190    0.1630 hc        1 706      0.057367
     35 H28         4.5320   -0.3250    1.6760 h1        1 706      0.083700
     36 H28A        3.9040    1.0710    2.6780 h1        1 706      0.083700
     37 HN27        5.6820    1.5630    0.7360 hn        1 706      0.446800
     38 H22         5.2620    3.2010   -1.4610 ha        1 706      0.154000
     39 H23         0.6770    1.0980   -1.1400 ha        1 706      0.181000
     40 H24         1.2170    2.5950   -3.0440 ha        1 706      0.158000
     41 HN12        3.5300    3.2560   -4.3480 hn        1 706      0.479800
     42 H9          4.0830    5.2600   -1.3150 ha        1 706      0.185000
     43 H4          4.2690    7.3290    0.0650 ha        1 706      0.212000
     44 H5          2.9990    9.4230   -0.6700 h4        1 706      0.097100
     45 HN14        0.4420    6.7800   -4.1810 hn        1 706      0.469300
     46 H15         1.3720    9.5900   -4.6990 hx        1 706      0.128200
     47 H15A       -0.0800    9.1040   -3.6800 hx        1 706      0.128200
     48 H17        -2.1030    8.1070   -4.7600 ha        1 706      0.153000
     49 H18        -3.4660    8.0580   -6.8880 h4        1 706      0.061100
     50 H20        -0.2220    9.3010   -9.1840 h4        1 706      0.061100
     51 H21         1.2930    9.4060   -7.1640 ha        1 706      0.153000
     52 H122        4.5500    4.1970   -3.3990 hn        1 706      0.479800
     53 H142        1.7380    7.2070   -5.1310 hn        1 706      0.469300
@<TRIPOS>BOND
     1    1    2 1   
     2    1   29 1   
     3    1   30 1   
     4    1   31 1   
     5    2    3 1   
     6    2    4 1   
     7    2    8 1   
     8    3   32 1   
     9    3   33 1   
    10    3   34 1   
    11    4    5 1   
    12    4   35 1   
    13    4   36 1   
    14    5    6 1   
    15    5   37 1   
    16    6    7 ar  
    17    6    8 ar  
    18    7   11 ar  
    19    7   38 1   
    20    8    9 ar  
    21    9   10 ar  
    22    9   39 1   
    23   10   11 ar  
    24   10   40 1   
    25   11   12 1   
    26   12   13 1   
    27   12   41 1   
    28   12   52 1   
    29   13   14 2   
    30   13   15 1   
    31   15   16 ar  
    32   15   20 ar  
    33   16   17 ar  
    34   16   42 1   
    35   17   18 ar  
    36   17   43 1   
    37   18   19 ar  
    38   18   44 1   
    39   19   20 ar  
    40   20   21 1   
    41   21   22 1   
    42   21   45 1   
    43   21   53 1   
    44   22   23 1   
    45   22   46 1   
    46   22   47 1   
    47   23   24 ar  
    48   23   28 ar  
    49   24   25 ar  
    50   24   48 1   
    51   25   26 ar  
    52   25   49 1   
    53   26   27 ar  
    54   27   28 ar  
    55   27   50 1   
    56   28   51 1   
@<TRIPOS>SUBSTRUCTURE
     1 706         1 TEMP              0 ****  ****    0 ROOT
