@<TRIPOS>MOLECULE
706
   51    54     1     0     0
SMALL
bcc


@<TRIPOS>ATOM
      1 C2          0.1890   -0.4150    0.0340 c3        1 706     -0.082100
      2 C1          1.6900   -0.2080    0.0730 c3        1 706     -0.009700
      3 C3          2.4010   -1.4070   -0.5200 c3        1 706     -0.082100
      4 C28         2.1660    0.0470    1.5470 c3        1 706      0.160800
      5 N27         2.7080    1.4090    1.6350 nh        1 706     -0.692600
      6 C26         2.7100    1.9480    0.3210 ca        1 706      0.123600
      7 C22         3.1750    3.1970   -0.0720 ca        1 706     -0.208000
      8 C25         2.0880    1.0700   -0.6180 ca        1 706     -0.151300
      9 C23         1.9310    1.4640   -1.9300 ca        1 706     -0.064000
     10 C24         2.3900    2.7200   -2.3420 ca        1 706     -0.183000
     11 C13         3.0090    3.5940   -1.4290 ca        1 706      0.088600
     12 N12         3.5020    4.8590   -1.7940 n         1 706     -0.462100
     13 C10         3.2930    5.5380   -2.9850 c         1 706      0.698700
     14 O11         2.6170    5.0720   -3.9250 o         1 706     -0.611100
     15 C8          3.9410    6.8750   -3.0820 ca        1 706     -0.342900
     16 C9          5.2800    7.0400   -2.7200 ca        1 706     -0.027000
     17 C4          5.8880    8.2830   -2.8530 ca        1 706     -0.316300
     18 C5          5.1110    9.3410   -3.3630 ca        1 706      0.466200
     19 N6          3.8320    9.2360   -3.7300 nb        1 706     -0.735000
     20 C7          3.2150    8.0070   -3.5940 ca        1 706      0.708200
     21 N14         1.8630    7.8880   -3.8840 nh        1 706     -0.848900
     22 C15         1.1590    8.9390   -4.5810 c3        1 706      0.250100
     23 C16        -0.2360    8.5470   -4.9720 ca        1 706     -0.063300
     24 C17        -1.3180    9.3590   -4.6140 ca        1 706     -0.237300
     25 C18        -2.6060    8.9850   -5.0360 ca        1 706      0.395700
     26 N19        -2.8610    7.8800   -5.7630 nb        1 706     -0.661000
     27 C20        -1.8100    7.1060   -6.0960 ca        1 706      0.395700
     28 C21        -0.4830    7.3960   -5.7290 ca        1 706     -0.237300
     29 H2         -0.1530   -0.5300   -1.0230 hc        1 706      0.039533
     30 H2A        -0.3390    0.4580    0.4860 hc        1 706      0.039533
     31 H2B        -0.0870   -1.3360    0.6030 hc        1 706      0.039533
     32 H3          2.1360   -2.3320    0.0470 hc        1 706      0.039533
     33 H3A         2.0990   -1.5420   -1.5870 hc        1 706      0.039533
     34 H3B         3.5080   -1.2680   -0.4810 hc        1 706      0.039533
     35 H28         2.9240   -0.7240    1.8490 h1        1 706      0.050200
     36 H28A        1.2960   -0.0120    2.2530 h1        1 706      0.050200
     37 HN27        3.6000    1.4580    2.0830 hn        1 706      0.382800
     38 H22         3.6510    3.8660    0.6590 ha        1 706      0.136000
     39 H23         1.4490    0.7970   -2.6610 ha        1 706      0.137000
     40 H24         2.2540    3.0110   -3.3960 ha        1 706      0.171000
     41 HN12        3.9790    5.3570   -1.0730 hn        1 706      0.320500
     42 H9          5.8620    6.1820   -2.3460 ha        1 706      0.141000
     43 H4          6.9380    8.4410   -2.5800 ha        1 706      0.149000
     44 H5          5.5510   10.3480   -3.4950 h4        1 706      0.024100
     45 HN14        1.5320    6.9570   -4.0410 hn        1 706      0.452800
     46 H15         1.7120    9.2400   -5.5220 h1        1 706      0.065200
     47 H15A        1.1270    9.8440   -3.9060 h1        1 706      0.065200
     48 H17        -1.1720   10.2680   -4.0160 ha        1 706      0.149500
     49 H18        -3.4850    9.6010   -4.7750 h4        1 706      0.024100
     50 H20        -2.0450    6.2050   -6.6900 h4        1 706      0.024100
     51 H21         0.3330    6.7280   -6.0380 ha        1 706      0.149500
@<TRIPOS>BOND
     1    1    2 1   
     2    1   29 1   
     3    1   30 1   
     4    1   31 1   
     5    2    3 1   
     6    2    4 1   
     7    2    8 1   
     8    3   32 1   
     9    3   33 1   
    10    3   34 1   
    11    4    5 1   
    12    4   35 1   
    13    4   36 1   
    14    5    6 1   
    15    5   37 1   
    16    6    7 ar  
    17    6    8 ar  
    18    7   11 ar  
    19    7   38 1   
    20    8    9 ar  
    21    9   10 ar  
    22    9   39 1   
    23   10   11 ar  
    24   10   40 1   
    25   11   12 1   
    26   12   13 1   
    27   12   41 1   
    28   13   14 2   
    29   13   15 1   
    30   15   16 ar  
    31   15   20 ar  
    32   16   17 ar  
    33   16   42 1   
    34   17   18 ar  
    35   17   43 1   
    36   18   19 ar  
    37   18   44 1   
    38   19   20 ar  
    39   20   21 1   
    40   21   22 1   
    41   21   45 1   
    42   22   23 1   
    43   22   46 1   
    44   22   47 1   
    45   23   24 ar  
    46   23   28 ar  
    47   24   25 ar  
    48   24   48 1   
    49   25   26 ar  
    50   25   49 1   
    51   26   27 ar  
    52   27   28 ar  
    53   27   50 1   
    54   28   51 1   
@<TRIPOS>SUBSTRUCTURE
     1 706         1 TEMP              0 ****  ****    0 ROOT
