@<TRIPOS>MOLECULE
706
   51    49     1     0     0
SMALL
bcc


@<TRIPOS>ATOM
      1 C2         -1.8640   -5.5850    1.0720 c3        1 706     -0.200000
      2 C1         -0.6360   -5.0650    1.8490 c3        1 706     -0.016000
      3 C3          0.3510   -6.2250    2.1090 c3        1 706     -0.200000
      4 C28        -1.0650   -4.4970    3.1160 c3        1 706     -0.074000
      5 N27        -0.6950   -3.1190    3.1260 n3        1 706     -0.250000
      6 C26        -0.0470   -2.8030    1.8190 c2        1 706      0.046000
      7 C22         0.5700   -1.6540    1.3540 c2        1 706     -0.182000
      8 C25         0.0330   -3.9990    1.0720 c2        1 706     -0.149000
      9 C23         0.7420   -4.0250   -0.1510 c2        1 706     -0.060000
     10 C24         1.3600   -2.8750   -0.6190 c1        1 706     -0.218000
     11 C13         1.2820   -1.6790    0.1250 c1        1 706      0.101000
     12 N12         2.0170   -0.4720   -0.3340 n         1 706     -0.317000
     13 C10         1.3110    0.7540   -0.5480 c2        1 706      0.372000
     14 O11         0.1340    0.8070   -0.3580 o         1 706     -0.369000
     15 C8          2.0350    1.9430   -1.0570 c2        1 706     -0.246000
     16 C9          3.3010    1.8110   -1.5470 c2        1 706     -0.033000
     17 C4          3.9410    2.8860   -2.0680 c1        1 706     -0.241000
     18 C5          3.3150    4.1100   -2.1030 c1        1 706     -0.039500
     19 N6          2.0650    4.2420   -1.6200 n1        1 706     -0.167500
     20 C7          1.4150    3.1590   -1.0920 c1        1 706      0.173000
     21 N14         0.1420    3.3270   -0.4810 n3        1 706     -0.273000
     22 C15        -0.3540    4.6540   -0.2010 c3        1 706     -0.008000
     23 C16        -1.6500    4.8630   -0.9160 c2        1 706     -0.075000
     24 C17        -2.8260    4.5890   -0.2870 c2        1 706     -0.174000
     25 C18        -4.0280    4.8020   -0.9440 c1        1 706     -0.071000
     26 N19        -4.0330    5.2900   -2.2300 n1        1 706     -0.167500
     27 C20        -2.8580    5.5640   -2.8590 c1        1 706     -0.039500
     28 C21        -1.6560    5.3510   -2.2040 c1        1 706     -0.161000
     29 H2         -2.2360   -6.3840    1.5360 hc        1 706      0.078500
     30 H2A        -1.6060   -5.8210    0.1980 hc        1 706      0.078500
     31 H2B        -2.5640   -4.8660    1.0310 hc        1 706      0.078500
     32 H3         -0.0820   -6.8990    2.6520 hc        1 706      0.078500
     33 H3A         0.6320   -6.6290    1.2380 hc        1 706      0.078500
     34 H3B         1.1700   -5.8680    2.6000 hc        1 706      0.078500
     35 H28        -0.6110   -4.9530    3.8390 h1        1 706      0.089000
     36 H28A       -2.0740   -4.5710    3.1880 h1        1 706      0.089000
     37 HN27       -1.4410   -2.6060    3.2290 hn        1 706      0.185000
     38 H22         0.5140   -0.8070    1.8820 ha        1 706      0.178000
     39 H23         0.7980   -4.8760   -0.6800 ha        1 706      0.134000
     40 H24         1.8660   -2.8950   -1.4960 ha        1 706      0.128000
     41 HN12        2.9220   -0.5350   -0.5630 hn        1 706      0.234000
     42 H9          3.7520    0.9320   -1.5220 ha        1 706      0.141000
     43 H4          4.8410    2.7920   -2.4160 ha        1 706      0.150000
     44 H5          3.7740    4.8800   -2.4770 ha        1 706      0.160000
     45 HN14       -0.3710    2.5750   -0.2480 hn        1 706      0.233000
     46 H15        -0.4940    4.7550    0.7770 h1        1 706      0.115000
     47 H15A        0.3010    5.3210   -0.5100 h1        1 706      0.115000
     48 H17        -2.8220    4.2340    0.6520 ha        1 706      0.148000
     49 H18        -4.8880    4.6020   -0.4830 ha        1 706      0.160000
     50 H20        -2.8610    5.9210   -3.8010 ha        1 706      0.160000
     51 H21        -0.8220    5.5460   -2.6500 ha        1 706      0.148000
@<TRIPOS>BOND
     1    1    2 1   
     2    1   29 1   
     3    1   30 1   
     4    1   31 1   
     5    2    3 1   
     6    2    4 1   
     7    2    8 1   
     8    3   32 1   
     9    3   33 1   
    10    3   34 1   
    11    4    5 1   
    12    4   35 1   
    13    4   36 1   
    14    5    6 1   
    15    5   37 1   
    16    6    7 1   
    17    6    8 1   
    18    7   11 1   
    19    7   38 1   
    20    8    9 1   
    21    9   10 1   
    22    9   39 1   
    23   10   40 1   
    24   11   12 1   
    25   12   13 1   
    26   12   41 1   
    27   13   14 1   
    28   13   15 1   
    29   15   16 1   
    30   15   20 1   
    31   16   17 1   
    32   16   42 1   
    33   17   43 1   
    34   18   19 1   
    35   18   44 1   
    36   20   21 1   
    37   21   22 1   
    38   21   45 1   
    39   22   23 1   
    40   22   46 1   
    41   22   47 1   
    42   23   24 1   
    43   23   28 1   
    44   24   25 1   
    45   24   48 1   
    46   25   49 1   
    47   26   27 1   
    48   27   50 1   
    49   28   51 1   
@<TRIPOS>SUBSTRUCTURE
     1 706         1 TEMP              0 ****  ****    0 ROOT
