@<TRIPOS>MOLECULE
706
   51    54     1     0     0
SMALL
bcc


@<TRIPOS>ATOM
      1 C2          0.1790   -0.4130    0.0270 c3        1 706     -0.082100
      2 C1          1.6810   -0.2090    0.0660 c3        1 706     -0.009700
      3 C3          2.3880   -1.4110   -0.5270 c3        1 706     -0.082100
      4 C28         2.1580    0.0440    1.5390 c3        1 706      0.160800
      5 N27         2.7040    1.4050    1.6270 nu        1 706     -0.692600
      6 C26         2.7070    1.9430    0.3120 ca        1 706      0.123600
      7 C22         3.1760    3.1900   -0.0810 ca        1 706     -0.208000
      8 C25         2.0820    1.0670   -0.6260 ca        1 706     -0.151300
      9 C23         1.9260    1.4600   -1.9380 ca        1 706     -0.064000
     10 C24         2.3890    2.7150   -2.3500 ca        1 706     -0.183000
     11 C13         3.0100    3.5870   -1.4380 ca        1 706      0.088600
     12 N12         3.5090    4.8500   -1.8040 ns        1 706     -0.462100
     13 C10         3.2960    5.5320   -2.9930 c         1 706      0.698700
     14 O11         2.6110    5.0700   -3.9290 o         1 706     -0.611100
     15 C8          3.9490    6.8670   -3.0920 ca        1 706     -0.342900
     16 C9          5.2910    7.0240   -2.7380 ca        1 706     -0.027000
     17 C4          5.9040    8.2650   -2.8730 ca        1 706     -0.316300
     18 C5          5.1290    9.3270   -3.3770 ca        1 706      0.466200
     19 N6          3.8460    9.2280   -3.7350 nb        1 706     -0.735000
     20 C7          3.2250    8.0030   -3.5970 ca        1 706      0.708200
     21 N14         1.8700    7.8900   -3.8780 nu        1 706     -0.848900
     22 C15         1.1660    8.9450   -4.5690 c3        1 706      0.250100
     23 C16        -0.2330    8.5610   -4.9510 ca        1 706     -0.063300
     24 C17        -1.3090    9.3770   -4.5840 ca        1 706     -0.237300
     25 C18        -2.6020    9.0090   -4.9980 ca        1 706      0.395700
     26 N19        -2.8670    7.9070   -5.7250 nb        1 706     -0.661000
     27 C20        -1.8210    7.1290   -6.0660 ca        1 706      0.395700
     28 C21        -0.4910    7.4120   -5.7080 ca        1 706     -0.237300
     29 H2         -0.1630   -0.5270   -1.0300 hc        1 706      0.039533
     30 H2A        -0.1000   -1.3330    0.5960 hc        1 706      0.039533
     31 H2B        -0.3460    0.4620    0.4790 hc        1 706      0.039533
     32 H3          3.4960   -1.2760   -0.4880 hc        1 706      0.039533
     33 H3A         2.0850   -1.5460   -1.5930 hc        1 706      0.039533
     34 H3B         2.1200   -2.3350    0.0410 hc        1 706      0.039533
     35 H28         2.9130   -0.7290    1.8420 h1        1 706      0.050200
     36 H28A        1.2870   -0.0110    2.2460 h1        1 706      0.050200
     37 HN27        3.5960    1.4510    2.0750 hn        1 706      0.382800
     38 H22         3.6540    3.8580    0.6500 ha        1 706      0.136000
     39 H23         1.4410    0.7950   -2.6680 ha        1 706      0.137000
     40 H24         2.2540    3.0070   -3.4040 ha        1 706      0.171000
     41 HN12        3.9910    5.3450   -1.0850 hn        1 706      0.320500
     42 H9          5.8720    6.1630   -2.3700 ha        1 706      0.141000
     43 H4          6.9560    8.4170   -2.6070 ha        1 706      0.149000
     44 H5          5.5720   10.3330   -3.5100 h4        1 706      0.024100
     45 HN14        1.5330    6.9600   -4.0350 hn        1 706      0.452800
     46 H15         1.1440    9.8500   -3.8920 h1        1 706      0.065200
     47 H15A        1.7140    9.2450   -5.5130 h1        1 706      0.065200
     48 H17        -1.1540   10.2840   -3.9860 ha        1 706      0.149500
     49 H18        -3.4760    9.6290   -4.7300 h4        1 706      0.024100
     50 H20        -2.0650    6.2300   -6.6600 h4        1 706      0.024100
     51 H21         0.3200    6.7400   -6.0240 ha        1 706      0.149500
@<TRIPOS>BOND
     1    1    2 1   
     2    1   29 1   
     3    1   30 1   
     4    1   31 1   
     5    2    3 1   
     6    2    4 1   
     7    2    8 1   
     8    3   32 1   
     9    3   33 1   
    10    3   34 1   
    11    4    5 1   
    12    4   35 1   
    13    4   36 1   
    14    5    6 1   
    15    5   37 1   
    16    6    7 ar  
    17    6    8 ar  
    18    7   11 ar  
    19    7   38 1   
    20    8    9 ar  
    21    9   10 ar  
    22    9   39 1   
    23   10   11 ar  
    24   10   40 1   
    25   11   12 1   
    26   12   13 1   
    27   12   41 1   
    28   13   14 2   
    29   13   15 1   
    30   15   16 ar  
    31   15   20 ar  
    32   16   17 ar  
    33   16   42 1   
    34   17   18 ar  
    35   17   43 1   
    36   18   19 ar  
    37   18   44 1   
    38   19   20 ar  
    39   20   21 1   
    40   21   22 1   
    41   21   45 1   
    42   22   23 1   
    43   22   46 1   
    44   22   47 1   
    45   23   24 ar  
    46   23   28 ar  
    47   24   25 ar  
    48   24   48 1   
    49   25   26 ar  
    50   25   49 1   
    51   26   27 ar  
    52   27   28 ar  
    53   27   50 1   
    54   28   51 1   
@<TRIPOS>SUBSTRUCTURE
     1 706         1 TEMP              0 ****  ****    0 ROOT
