@<TRIPOS>MOLECULE
706
   51    54     1     0     0
SMALL
bcc


@<TRIPOS>ATOM
      1 C2          5.7040    2.6640   -0.0410 c3        1 706     -0.082100
      2 C1          5.7580    1.1820    0.2710 c3        1 706     -0.009700
      3 C3          6.5800    0.9380    1.5210 c3        1 706     -0.082100
      4 C28         6.3580    0.3820   -0.9390 c3        1 706      0.160800
      5 N27         5.3750   -0.6200   -1.3710 nh        1 706     -0.692600
      6 C26         4.1960   -0.4110   -0.6070 ca        1 706      0.122600
      7 C22         2.9950   -1.1030   -0.7130 ca        1 706     -0.206000
      8 C25         4.3780    0.5910    0.3940 ca        1 706     -0.150300
      9 C23         3.3610    0.8730    1.2810 ca        1 706     -0.065000
     10 C24         2.1480    0.1790    1.1950 ca        1 706     -0.181000
     11 C13         1.9520   -0.8050    0.2080 ca        1 706      0.087600
     12 N12         0.7610   -1.5440    0.0960 n         1 706     -0.464100
     13 C10        -0.4680   -1.2490    0.6680 c         1 706      0.697700
     14 O11        -0.6590   -0.2420    1.3800 o         1 706     -0.611100
     15 C8         -1.5590   -2.2200    0.3810 ca        1 706     -0.341900
     16 C9         -1.3370   -3.5930    0.5190 ca        1 706     -0.027000
     17 C4         -2.3740   -4.4900    0.2900 ca        1 706     -0.315300
     18 C5         -3.6280   -3.9640   -0.0720 ca        1 706      0.465200
     19 N6         -3.8940   -2.6630   -0.2120 nb        1 706     -0.735000
     20 C7         -2.8700   -1.7630    0.0040 ca        1 706      0.706200
     21 N14        -3.0910   -0.4100   -0.2210 nh        1 706     -0.847900
     22 C15        -4.4310    0.1000   -0.3980 c3        1 706      0.249100
     23 C16        -4.4840    1.5990   -0.4370 ca        1 706     -0.063300
     24 C17        -5.1140    2.2500   -1.5040 ca        1 706     -0.237300
     25 C18        -5.1840    3.6550   -1.4860 ca        1 706      0.395700
     26 N19        -4.6700    4.4150   -0.5000 nb        1 706     -0.662000
     27 C20        -4.0630    3.7730    0.5180 ca        1 706      0.395700
     28 C21        -3.9460    2.3740    0.5970 ca        1 706     -0.237300
     29 H2          6.7360    3.0640   -0.1860 hc        1 706      0.039700
     30 H2A         5.1120    2.8510   -0.9690 hc        1 706      0.039700
     31 H2B         5.2220    3.2140    0.8030 hc        1 706      0.039700
     32 H3          6.1110    1.4550    2.3920 hc        1 706      0.039700
     33 H3A         6.6380   -0.1550    1.7440 hc        1 706      0.039700
     34 H3B         7.6150    1.3320    1.3840 hc        1 706      0.039700
     35 H28         6.6300    1.0840   -1.7720 h1        1 706      0.050200
     36 H28A        7.2810   -0.1710   -0.6220 h1        1 706      0.050200
     37 HN27        5.2100   -0.6220   -2.3570 hn        1 706      0.382800
     38 H22         2.8630   -1.8690   -1.4900 ha        1 706      0.136000
     39 H23         3.4920    1.6410    2.0570 ha        1 706      0.137000
     40 H24         1.3470    0.4220    1.9110 ha        1 706      0.169000
     41 HN12        0.7910   -2.3160   -0.5340 hn        1 706      0.320500
     42 H9         -0.3470   -3.9660    0.8280 ha        1 706      0.142000
     43 H4         -2.2300   -5.5720    0.3950 ha        1 706      0.149000
     44 H5         -4.4880   -4.6370   -0.2580 h4        1 706      0.024100
     45 HN14       -2.4380    0.2140    0.2110 hn        1 706      0.451800
     46 H15        -4.8400   -0.3230   -1.3620 h1        1 706      0.065200
     47 H15A       -5.1110   -0.2490    0.4380 h1        1 706      0.065200
     48 H17        -5.5450    1.6830   -2.3390 ha        1 706      0.149500
     49 H18        -5.6760    4.2040   -2.3090 h4        1 706      0.024100
     50 H20        -3.6480    4.4190    1.3130 h4        1 706      0.024100
     51 H21        -3.4450    1.9110    1.4590 ha        1 706      0.149500
@<TRIPOS>BOND
     1    1    2 1   
     2    1   29 1   
     3    1   30 1   
     4    1   31 1   
     5    2    3 1   
     6    2    4 1   
     7    2    8 1   
     8    3   32 1   
     9    3   33 1   
    10    3   34 1   
    11    4    5 1   
    12    4   35 1   
    13    4   36 1   
    14    5    6 1   
    15    5   37 1   
    16    6    7 ar  
    17    6    8 ar  
    18    7   11 ar  
    19    7   38 1   
    20    8    9 ar  
    21    9   10 ar  
    22    9   39 1   
    23   10   11 ar  
    24   10   40 1   
    25   11   12 1   
    26   12   13 1   
    27   12   41 1   
    28   13   14 2   
    29   13   15 1   
    30   15   16 ar  
    31   15   20 ar  
    32   16   17 ar  
    33   16   42 1   
    34   17   18 ar  
    35   17   43 1   
    36   18   19 ar  
    37   18   44 1   
    38   19   20 ar  
    39   20   21 1   
    40   21   22 1   
    41   21   45 1   
    42   22   23 1   
    43   22   46 1   
    44   22   47 1   
    45   23   24 ar  
    46   23   28 ar  
    47   24   25 ar  
    48   24   48 1   
    49   25   26 ar  
    50   25   49 1   
    51   26   27 ar  
    52   27   28 ar  
    53   27   50 1   
    54   28   51 1   
@<TRIPOS>SUBSTRUCTURE
     1 706         1 TEMP              0 ****  ****    0 ROOT
