@<TRIPOS>MOLECULE
708
   64    58     1     0     0
SMALL
bcc


@<TRIPOS>ATOM
      1 CL38       -1.9610   -4.9630   -0.8060 cl        1 708     -0.035000
      2 C37        -1.9810   -3.4500    0.0990 c2        1 708     -0.030000
      3 C25        -2.2210   -3.4670    1.4680 c2        1 708     -0.047000
      4 C26        -2.6460   -4.8200    2.1610 c2        1 708     -0.147000
      5 C27        -1.6750   -5.6770    2.6680 c1        1 708     -0.074000
      6 C28        -0.1840   -5.3050    2.5520 c1        1 708     -0.093000
      7 C33         0.5160   -4.9340    3.6810 c1        1 708     -0.091000
      8 C32         1.9170   -4.8170    3.6320 c1        1 708     -0.104000
      9 C34         2.6940   -4.3990    4.8770 c2        1 708      0.354000
     10 O36         2.2000   -3.6040    5.6740 o         1 708     -0.578000
     11 O35         3.8770   -4.8620    5.0810 o         1 708     -0.578000
     12 C31         2.5810   -5.0710    2.4690 c1        1 708     -0.098000
     13 C30         1.8730   -5.4450    1.3320 c1        1 708     -0.160000
     14 C29         0.4890   -5.5600    1.3800 c2        1 708     -0.133000
     15 C24        -2.3650   -2.2600    2.1680 c1        1 708     -0.069000
     16 C23        -2.2670   -1.0380    1.4900 c1        1 708     -0.179000
     17 C39        -1.8830   -2.2180   -0.5850 c1        1 708     -0.161000
     18 C22        -2.0260   -1.0170    0.1110 c1        1 708      0.068000
     19 O21        -2.1230    0.2100   -0.6070 os        1 708     -0.223000
     20 C20        -1.5210    1.3130    0.0580 c3        1 708      0.046000
     21 C19        -1.2070    2.4300   -0.9730 c2        1 708     -0.186000
     22 C4         -1.8200    2.5890   -2.2020 c1        1 708      0.011000
     23 C2         -3.1800    2.0200   -2.5890 c2        1 708     -0.042000
     24 C3         -3.6280    1.0620   -1.5540 c3        1 708     -0.213000
     25 C1         -3.0730    1.2990   -3.9230 c3        1 708     -0.213000
     26 C7         -0.1550    3.3330   -0.9000 c1        1 708     -0.046000
     27 N6         -0.1240    4.0270   -2.0520 n2        1 708     -0.061000
     28 O5         -1.1640    3.5650   -2.8680 os        1 708     -0.077000
     29 C8          0.7170    3.6090    0.3410 c2        1 708     -0.565000
     30 S9          2.3560    3.0440    0.0520 s6        1 708      1.461000
     31 O10         3.1750    3.2220    1.3130 oh        1 708     -0.629000
     32 C11         3.0830    3.9910   -1.2690 c2        1 708     -0.577000
     33 C17         2.6710    5.3260   -1.4880 c2        1 708     -0.009000
     34 CL18        1.4520    6.0280   -0.4780 cl        1 708     -0.046000
     35 C16         3.3130    6.1000   -2.4390 c1        1 708     -0.120000
     36 C15         4.3600    5.5630   -3.1760 c1        1 708     -0.106500
     37 C14         4.7660    4.2320   -2.9540 c1        1 708     -0.106500
     38 C12         4.1220    3.4600   -2.0020 c1        1 708     -0.011000
     39 CL13        4.5580    1.7450   -1.8090 cl        1 708     -0.062000
     40 H26        -3.6570   -5.0700    2.2400 ha        1 708      0.121000
     41 H27        -1.9440   -6.5330    3.1060 ha        1 708      0.116000
     42 H33         0.0440   -4.7670    4.5100 ha        1 708      0.148000
     43 H31         3.5520   -4.9900    2.4350 ha        1 708      0.149000
     44 H30         2.3350   -5.6210    0.5230 ha        1 708      0.110000
     45 H29        -0.0060   -5.8230    0.5810 ha        1 708      0.111000
     46 H24        -2.5400   -2.2730    3.1600 ha        1 708      0.162000
     47 H23        -2.3720   -0.1680    1.9990 ha        1 708      0.152000
     48 H39        -1.7180   -2.2080   -1.5360 ha        1 708      0.151000
     49 H20        -2.1550    1.6710    0.7590 h1        1 708      0.103000
     50 H20A       -0.6910    1.0230    0.4850 h1        1 708      0.103000
     51 H2         -3.8410    2.7630   -2.6620 ha        1 708      0.104000
     52 H3         -3.4320    0.1610   -1.8450 hc        1 708      0.085667
     53 H3A        -3.1820    1.2340   -0.7580 hc        1 708      0.085667
     54 H3B        -4.6360    1.1630   -1.4100 hc        1 708      0.085667
     55 H1         -3.6820    0.4760   -3.9140 hc        1 708      0.085667
     56 H1A        -2.1610    1.0210   -4.0680 hc        1 708      0.085667
     57 H1B        -3.3570    1.9170   -4.6620 hc        1 708      0.085667
     58 H8          0.3620    3.1640    1.0720 h4        1 708      0.128000
     59 H8A         0.7350    4.6340    0.5320 h4        1 708      0.128000
     60 HO10        3.0850    4.0730    1.6150 ho        1 708      0.210000
     61 H16         3.0560    7.0580   -2.5610 ha        1 708      0.207000
     62 H15         4.8140    6.1010   -3.8310 ha        1 708      0.192000
     63 H14         5.5400    3.8600   -3.4530 ha        1 708      0.192000
     64 HS9         2.3360    1.8750   -0.2530 hs        1 708     -0.172000
@<TRIPOS>BOND
     1    1    2 1   
     2    2    3 1   
     3    2   17 1   
     4    3    4 1   
     5    3   15 1   
     6    4    5 1   
     7    4   40 1   
     8    5   41 1   
     9    6    7 1   
    10    6   14 1   
    11    7   42 1   
    12    8    9 1   
    13    8   12 1   
    14    9   10 1   
    15    9   11 1   
    16   12   43 1   
    17   13   14 1   
    18   13   44 1   
    19   14   45 1   
    20   15   46 1   
    21   16   18 1   
    22   16   47 1   
    23   17   48 1   
    24   18   19 1   
    25   19   20 1   
    26   20   21 1   
    27   20   49 1   
    28   20   50 1   
    29   21   22 1   
    30   21   26 1   
    31   22   28 1   
    32   23   24 1   
    33   23   25 1   
    34   23   51 1   
    35   24   52 1   
    36   24   53 1   
    37   24   54 1   
    38   25   55 1   
    39   25   56 1   
    40   25   57 1   
    41   26   27 1   
    42   27   28 1   
    43   29   30 1   
    44   29   58 1   
    45   29   59 1   
    46   30   31 1   
    47   30   32 1   
    48   30   64 1   
    49   31   60 1   
    50   32   33 1   
    51   32   38 1   
    52   33   34 1   
    53   33   35 1   
    54   35   61 1   
    55   36   37 1   
    56   36   62 1   
    57   37   63 1   
    58   38   39 1   
@<TRIPOS>SUBSTRUCTURE
     1 708         1 TEMP              0 ****  ****    0 ROOT
