@<TRIPOS>MOLECULE
708
   64    66     1     0     0
SMALL
bcc


@<TRIPOS>ATOM
      1 CL38        5.5990    3.0810   -0.7460 cl        1 708     -0.029000
      2 C37         4.4730    1.8010   -0.8150 ca        1 708     -0.065000
      3 C25         3.9300    1.2750    0.3680 ca        1 708      0.035000
      4 C26         4.2900    1.7860    1.6640 c2        1 708     -0.469000
      5 C27         5.1060    2.7350    2.0430 c1        1 708      0.144000
      6 C28         1.3950   -0.8870    7.8030 ca        1 708     -0.163500
      7 C33         1.9490   -0.3740    6.6300 ca        1 708     -0.101000
      8 C32         1.5950   -0.9120    5.3890 ca        1 708     -0.101000
      9 C34         2.1950   -0.3580    4.1200 c2        1 708      0.362000
     10 O36         1.8580   -0.8660    3.0100 o         1 708     -0.578500
     11 O35         3.0190    0.6030    4.2050 o         1 708     -0.578500
     12 C31         0.6810   -1.9690    5.3350 ca        1 708     -0.101000
     13 C30         0.1270   -2.4810    6.5070 ca        1 708     -0.163500
     14 C29         0.4830   -1.9410    7.7430 ca        1 708     -0.151000
     15 C24         3.0030    0.2160    0.2710 ca        1 708     -0.091000
     16 C23         2.6270   -0.2880   -0.9650 ca        1 708     -0.149000
     17 C39         4.1130    1.3000   -2.0710 ca        1 708     -0.193000
     18 C22         3.1880    0.2580   -2.1340 ca        1 708      0.038000
     19 O21         2.7860   -0.3400   -3.3240 os        1 708     -0.231000
     20 C20         2.8330    0.4820   -4.4890 c3        1 708      0.039000
     21 C19         4.1250    0.4190   -5.1980 c2        1 708     -0.209000
     22 C4          4.7780    1.4400   -5.8640 c2        1 708     -0.016000
     23 C2          4.5440    2.8890   -6.0320 c3        1 708     -0.045000
     24 C3          5.6190    3.6870   -5.3140 c3        1 708     -0.210500
     25 C1          4.4860    3.2660   -7.5000 c3        1 708     -0.210500
     26 C7          4.9660   -0.7660   -5.4390 c2        1 708     -0.045000
     27 N6          6.0140   -0.3980   -6.2080 n2        1 708     -0.048000
     28 O5          5.9280    0.8900   -6.4790 os        1 708     -0.065000
     29 C8          4.7250   -2.1000   -4.8860 c3        1 708     -0.560000
     30 S9          3.4490   -3.0140   -5.6880 s6        1 708      1.451000
     31 O10         1.8690   -2.3210   -5.4780 oh        1 708     -0.613000
     32 C11         3.6580   -4.7530   -5.6130 ca        1 708     -0.529000
     33 C17         3.2450   -5.4170   -4.4500 ca        1 708      0.000500
     34 CL18        2.5960   -4.5240   -3.1520 cl        1 708     -0.012000
     35 C16         3.3560   -6.8030   -4.3080 ca        1 708     -0.140500
     36 C15         3.8970   -7.5540   -5.3500 ca        1 708     -0.098000
     37 C14         4.3270   -6.9250   -6.5150 ca        1 708     -0.140500
     38 C12         4.2060   -5.5350   -6.6330 ca        1 708      0.000500
     39 CL13        4.7630   -4.8180   -8.0760 cl        1 708     -0.012000
     40 H26         3.7640    1.2660    2.5460 ha        1 708      0.306000
     41 H27         1.6770   -0.4610    8.7750 ha        1 708      0.107500
     42 H33         2.6710    0.4580    6.6550 ha        1 708      0.150000
     43 H31         0.4130   -2.3810    4.3490 ha        1 708      0.150000
     44 H30        -0.5920   -3.3110    6.4590 ha        1 708      0.107500
     45 H29         0.0470   -2.3440    8.6660 ha        1 708      0.103000
     46 H24         2.5720   -0.2040    1.2100 ha        1 708      0.234000
     47 H23         1.9010   -1.1090   -1.0380 ha        1 708      0.145000
     48 H39         4.5590    1.7130   -2.9870 ha        1 708      0.140000
     49 H20         2.0260    0.0350   -5.1430 h1        1 708      0.111500
     50 H20A        2.5720    1.5440   -4.2360 h1        1 708      0.111500
     51 H2          3.5460    3.1230   -5.5570 hc        1 708      0.105000
     52 H3          6.6250    3.4510   -5.7390 hc        1 708      0.084167
     53 H3A         5.6250    3.4410   -4.2250 hc        1 708      0.084167
     54 H3B         5.4230    4.7790   -5.4350 hc        1 708      0.084167
     55 H1          3.6590    2.7170   -8.0120 hc        1 708      0.084167
     56 H1A         5.4490    3.0080   -8.0040 hc        1 708      0.084167
     57 H1B         4.3080    4.3630   -7.6030 hc        1 708      0.084167
     58 H8          4.4020   -1.9810   -3.8140 h1        1 708      0.152500
     59 H8A         5.6620   -2.7130   -4.8870 h1        1 708      0.152500
     60 HO10        1.6970   -2.1790   -4.5480 ho        1 708      0.225000
     61 H16         3.0220   -7.2980   -3.3830 ha        1 708      0.148500
     62 H15         3.9890   -8.6460   -5.2490 ha        1 708      0.137000
     63 H14         4.7610   -7.5170   -7.3350 ha        1 708      0.148500
     64 HS9         3.6120   -2.7140   -6.9340 hs        1 708     -0.191000
@<TRIPOS>BOND
     1    1    2 1   
     2    2    3 1   
     3    2   17 1   
     4    3    4 1   
     5    3   15 1   
     6    4    5 1   
     7    4   40 1   
     8    6    7 1   
     9    6   14 1   
    10    6   41 1   
    11    7    8 1   
    12    7   42 1   
    13    8    9 1   
    14    8   12 1   
    15    9   10 1   
    16    9   11 1   
    17   12   13 1   
    18   12   43 1   
    19   13   14 1   
    20   13   44 1   
    21   14   45 1   
    22   15   16 1   
    23   15   46 1   
    24   16   18 1   
    25   16   47 1   
    26   17   18 1   
    27   17   48 1   
    28   18   19 1   
    29   19   20 1   
    30   20   21 1   
    31   20   49 1   
    32   20   50 1   
    33   21   22 1   
    34   21   26 1   
    35   22   23 1   
    36   22   28 1   
    37   23   24 1   
    38   23   25 1   
    39   23   51 1   
    40   24   52 1   
    41   24   53 1   
    42   24   54 1   
    43   25   55 1   
    44   25   56 1   
    45   25   57 1   
    46   26   27 1   
    47   26   29 1   
    48   27   28 1   
    49   29   30 1   
    50   29   58 1   
    51   29   59 1   
    52   30   31 1   
    53   30   32 1   
    54   30   64 1   
    55   31   60 1   
    56   32   33 1   
    57   32   38 1   
    58   33   34 1   
    59   33   35 1   
    60   35   36 1   
    61   35   61 1   
    62   36   37 1   
    63   36   62 1   
    64   37   38 1   
    65   37   63 1   
    66   38   39 1   
@<TRIPOS>SUBSTRUCTURE
     1 708         1 TEMP              0 ****  ****    0 ROOT
