@<TRIPOS>MOLECULE
708
   64    66     1     0     0
SMALL
bcc


@<TRIPOS>ATOM
      1 Cl38        1.1580    4.1910   -0.9050 cl        1 708     -0.024000
      2 C37         2.1170    2.7860   -0.7760 ca        1 708     -0.067000
      3 C25         1.9610    1.9300    0.3290 ca        1 708      0.031000
      4 C26         0.9360    2.1540    1.3180 c2        1 708     -0.457000
      5 C27         0.1620    3.1870    1.5400 c1        1 708      0.151000
      6 C28        -0.8790   -1.9460    6.5930 ca        1 708     -0.161500
      7 C33        -0.6220   -1.4460    5.3170 ca        1 708     -0.099000
      8 C32         0.6450   -1.5950    4.7440 ca        1 708     -0.108000
      9 C34         0.9230   -1.0570    3.3660 c2        1 708      0.357000
     10 O36         2.0730   -1.2160    2.8570 o         1 708     -0.586000
     11 O35        -0.0050   -0.4580    2.7370 o         1 708     -0.586000
     12 C31         1.6520   -2.2470    5.4630 ca        1 708     -0.099000
     13 C30         1.3940   -2.7460    6.7390 ca        1 708     -0.161500
     14 C29         0.1280   -2.5960    7.3060 ca        1 708     -0.145000
     15 C24         2.8070    0.8110    0.4410 ca        1 708     -0.095000
     16 C23         3.7430    0.5260   -0.5460 ca        1 708     -0.139000
     17 C39         3.0370    2.5040   -1.7880 ca        1 708     -0.179000
     18 C22         3.8300    1.3590   -1.6730 ca        1 708      0.037000
     19 O21         4.7690    1.0190   -2.6430 os        1 708     -0.216000
     20 C20         4.2380    1.0810   -3.9780 c3        1 708      0.048000
     21 C19         4.9350    0.1030   -4.8300 c2        1 708     -0.184000
     22 C4          5.5260    0.3320   -6.0600 c2        1 708     -0.022000
     23 C2          5.7330    1.5200   -6.9120 c3        1 708     -0.043000
     24 C3          7.2110    1.7440   -7.1730 c3        1 708     -0.209000
     25 C1          4.9740    1.3830   -8.2200 c3        1 708     -0.209000
     26 C7          5.1120   -1.3420   -4.6030 c2        1 708     -0.025000
     27 N6          5.7640   -1.8620   -5.6670 n2        1 708     -0.059000
     28 O5          6.0140   -0.9040   -6.5410 os        1 708     -0.069000
     29 C8          4.6890   -2.0720   -3.4100 c3        1 708     -0.571000
     30 S9          3.1880   -3.0130   -3.5480 s6        1 708      1.463000
     31 O10         3.3780   -4.7030   -3.9360 oh        1 708     -0.620000
     32 C11         2.0500   -2.5900   -2.3200 ca        1 708     -0.565000
     33 C17         0.8450   -1.9090   -2.5170 ca        1 708     -0.004500
     34 Cl18        0.3080   -1.5380   -4.0980 cl        1 708     -0.050500
     35 C16         0.0440   -1.4910   -1.4470 ca        1 708     -0.131000
     36 C15         0.4520   -1.7470   -0.1410 ca        1 708     -0.068000
     37 C14         1.6290   -2.4620    0.0960 ca        1 708     -0.131000
     38 C12         2.3910   -2.8890   -0.9890 ca        1 708     -0.004500
     39 Cl13        3.8120   -3.7970   -0.6810 cl        1 708     -0.050500
     40 H26         0.7380    1.2580    1.9970 ha        1 708      0.287000
     41 H27        -1.8760   -1.8260    7.0390 ha        1 708      0.110000
     42 H33        -1.4030   -0.9280    4.7390 ha        1 708      0.150000
     43 H31         2.6460   -2.3540    4.9990 ha        1 708      0.150000
     44 H30         2.1890   -3.2570    7.3000 ha        1 708      0.110000
     45 H29        -0.0740   -2.9890    8.3110 ha        1 708      0.107000
     46 H24         2.6850    0.1300    1.3150 ha        1 708      0.220000
     47 H23         4.4020   -0.3490   -0.4600 ha        1 708      0.150000
     48 H39         3.1320    3.1620   -2.6630 ha        1 708      0.138000
     49 H20         4.4080    2.1270   -4.3580 h1        1 708      0.087500
     50 H20A        3.1340    0.8670   -3.9710 h1        1 708      0.087500
     51 H2          5.3270    2.4120   -6.3500 hc        1 708      0.103000
     52 H3          7.3500    2.6470   -7.8140 hc        1 708      0.082000
     53 H3A         7.6500    0.8590   -7.6940 hc        1 708      0.082000
     54 H3B         7.7570    1.8960   -6.2120 hc        1 708      0.082000
     55 H1          3.8800    1.2730   -8.0270 hc        1 708      0.082000
     56 H1A         5.3290    0.4830   -8.7790 hc        1 708      0.082000
     57 H1B         5.1390    2.2880   -8.8510 hc        1 708      0.082000
     58 H8          5.4750   -2.8100   -3.1030 h1        1 708      0.145500
     59 H8A         4.5630   -1.3410   -2.5670 h1        1 708      0.145500
     60 HO10        3.6250   -5.1880   -3.1550 ho        1 708      0.203000
     61 H16        -0.8910   -0.9420   -1.6340 ha        1 708      0.177500
     62 H15        -0.1160   -1.3580    0.7320 ha        1 708      0.211000
     63 H14         1.9570   -2.6220    1.1430 ha        1 708      0.177500
     64 HS9         2.6700   -2.5980   -4.6550 hs        1 708     -0.197000
@<TRIPOS>BOND
     1    1    2 1   
     2    2    3 1   
     3    2   17 1   
     4    3    4 1   
     5    3   15 1   
     6    4    5 1   
     7    4   40 1   
     8    6    7 1   
     9    6   14 1   
    10    6   41 1   
    11    7    8 1   
    12    7   42 1   
    13    8    9 1   
    14    8   12 1   
    15    9   10 1   
    16    9   11 1   
    17   12   13 1   
    18   12   43 1   
    19   13   14 1   
    20   13   44 1   
    21   14   45 1   
    22   15   16 1   
    23   15   46 1   
    24   16   18 1   
    25   16   47 1   
    26   17   18 1   
    27   17   48 1   
    28   18   19 1   
    29   19   20 1   
    30   20   21 1   
    31   20   49 1   
    32   20   50 1   
    33   21   22 1   
    34   21   26 1   
    35   22   23 1   
    36   22   28 1   
    37   23   24 1   
    38   23   25 1   
    39   23   51 1   
    40   24   52 1   
    41   24   53 1   
    42   24   54 1   
    43   25   55 1   
    44   25   56 1   
    45   25   57 1   
    46   26   27 1   
    47   26   29 1   
    48   27   28 1   
    49   29   30 1   
    50   29   58 1   
    51   29   59 1   
    52   30   31 1   
    53   30   32 1   
    54   30   64 1   
    55   31   60 1   
    56   32   33 1   
    57   32   38 1   
    58   33   34 1   
    59   33   35 1   
    60   35   36 1   
    61   35   61 1   
    62   36   37 1   
    63   36   62 1   
    64   37   38 1   
    65   37   63 1   
    66   38   39 1   
@<TRIPOS>SUBSTRUCTURE
     1 708         1 TEMP              0 ****  ****    0 ROOT
