@<TRIPOS>MOLECULE
708
   64    67     1     0     0
SMALL
bcc


@<TRIPOS>ATOM
      1 CL38        2.0390   -0.0810   -2.9850 cl        1 708     -0.105400
      2 C37         1.6470   -0.5520   -1.3920 ca        1 708      0.040400
      3 C25         2.6030   -0.5090   -0.3630 ca        1 708     -0.029800
      4 C26         3.9520   -0.0300   -0.5990 ce        1 708     -0.189200
      5 C27         5.0240   -0.4200    0.1150 cf        1 708     -0.025200
      6 C28         6.3820    0.0500   -0.0760 ca        1 708     -0.123800
      7 C33         7.3480   -0.2680    0.8940 ca        1 708     -0.079000
      8 C32         8.6670    0.1690    0.7630 ca        1 708     -0.135600
      9 C34         9.6980   -0.1770    1.8300 c         1 708      0.909200
     10 O36        10.8800    0.2360    1.6620 o         1 708     -0.828300
     11 O35         9.3120   -0.8580    2.8210 o         1 708     -0.828300
     12 C31         9.0300    0.9260   -0.3540 ca        1 708     -0.085000
     13 C30         8.0820    1.2410   -1.3280 ca        1 708     -0.172000
     14 C29         6.7660    0.8090   -1.1930 ca        1 708     -0.126000
     15 C24         2.2010   -0.9240    0.9210 ca        1 708     -0.098000
     16 C23         0.9100   -1.3580    1.1770 ca        1 708     -0.148000
     17 C39         0.3370   -0.9890   -1.1600 ca        1 708     -0.200000
     18 C22        -0.0270   -1.3850    0.1280 ca        1 708      0.105100
     19 O21        -1.2860   -1.8430    0.4820 os        1 708     -0.324900
     20 C20        -2.2990   -1.6750   -0.5210 c3        1 708      0.205700
     21 C19        -3.5960   -2.0200    0.0830 cc        1 708     -0.327900
     22 C4         -4.4730   -3.0290   -0.2740 cd        1 708      0.289000
     23 C2         -4.4650   -4.1130   -1.2770 c3        1 708     -0.101000
     24 C3         -4.5290   -5.4700   -0.5980 c3        1 708     -0.092600
     25 C1         -5.6110   -3.9500   -2.2580 c3        1 708     -0.092600
     26 C7         -4.2710   -1.3210    1.1880 cc        1 708      0.379600
     27 N6         -5.4610   -1.9210    1.4090 nd        1 708     -0.382300
     28 O5         -5.6090   -2.9220    0.5610 os        1 708     -0.119100
     29 C8         -3.7130   -0.1910    1.9300 c3        1 708     -0.114900
     30 S9         -4.1960    1.4130    1.3670 s6        1 708     -0.132400
     31 O10        -4.8260    2.3860    2.6690 oh        1 708     -0.607700
     32 C11        -3.1850    2.1090    0.1240 ca        1 708     -0.095500
     33 C17        -3.4910    2.1530   -1.2400 ca        1 708      0.077400
     34 CL18       -4.9490    1.4890   -1.8260 cl        1 708     -0.099900
     35 C16        -2.6240    2.7310   -2.1740 ca        1 708     -0.133500
     36 C15        -1.4170    3.2780   -1.7440 ca        1 708     -0.087000
     37 C14        -1.0790    3.2530   -0.3920 ca        1 708     -0.133500
     38 C12        -1.9640    2.6740    0.5190 ca        1 708      0.077400
     39 CL13       -1.5250    2.6570    2.1700 cl        1 708     -0.099900
     40 H26         4.0580    0.6970   -1.4220 ha        1 708      0.135000
     41 H27         4.9090   -1.1600    0.9300 ha        1 708      0.120000
     42 H33         7.0860   -0.8660    1.7830 ha        1 708      0.153000
     43 H31        10.0770    1.2600   -0.4410 ha        1 708      0.154000
     44 H30         8.3730    1.8330   -2.2070 ha        1 708      0.108000
     45 H29         6.0300    1.0580   -1.9710 ha        1 708      0.108000
     46 H24         2.9330   -0.8920    1.7450 ha        1 708      0.151000
     47 H23         0.6060   -1.6820    2.1830 ha        1 708      0.148000
     48 H39        -0.3810   -1.0160   -1.9910 ha        1 708      0.142000
     49 H20        -2.3070   -0.6040   -0.8690 h1        1 708      0.049700
     50 H20A       -2.0680   -2.3530   -1.3870 h1        1 708      0.049700
     51 H2         -3.4900   -4.0390   -1.8420 hc        1 708      0.067700
     52 H3         -5.4680   -5.5590    0.0000 hc        1 708      0.045200
     53 H3A        -4.5130   -6.2780   -1.3680 hc        1 708      0.045200
     54 H3B        -3.6570   -5.6060    0.0850 hc        1 708      0.045200
     55 H1         -5.5310   -2.9750   -2.7950 hc        1 708      0.045200
     56 H1A        -5.5870   -4.7760   -3.0080 hc        1 708      0.045200
     57 H1B        -6.5890   -3.9810   -1.7190 hc        1 708      0.045200
     58 H8         -4.0080   -0.2420    3.0120 h1        1 708      0.110700
     59 H8A        -2.5930   -0.2560    1.8820 h1        1 708      0.110700
     60 HO10       -4.1140    2.7860    3.1590 ho        1 708      0.409000
     61 H16        -2.8890    2.7520   -3.2410 ha        1 708      0.154500
     62 H15        -0.7250    3.7260   -2.4740 ha        1 708      0.147000
     63 H14        -0.1210    3.6760   -0.0520 ha        1 708      0.154500
     64 HS9        -5.3180    1.1700    0.7720 hs        1 708      0.289800
@<TRIPOS>BOND
     1    1    2 1   
     2    2    3 ar  
     3    2   17 ar  
     4    3    4 1   
     5    3   15 ar  
     6    4    5 2   
     7    4   40 1   
     8    5    6 1   
     9    5   41 1   
    10    6    7 ar  
    11    6   14 ar  
    12    7    8 ar  
    13    7   42 1   
    14    8    9 1   
    15    8   12 ar  
    16    9   10 1   
    17    9   11 1   
    18   12   13 ar  
    19   12   43 1   
    20   13   14 ar  
    21   13   44 1   
    22   14   45 1   
    23   15   16 ar  
    24   15   46 1   
    25   16   18 ar  
    26   16   47 1   
    27   17   18 ar  
    28   17   48 1   
    29   18   19 1   
    30   19   20 1   
    31   20   21 1   
    32   20   49 1   
    33   20   50 1   
    34   21   22 2   
    35   21   26 1   
    36   22   23 1   
    37   22   28 1   
    38   23   24 1   
    39   23   25 1   
    40   23   51 1   
    41   24   52 1   
    42   24   53 1   
    43   24   54 1   
    44   25   55 1   
    45   25   56 1   
    46   25   57 1   
    47   26   27 2   
    48   26   29 1   
    49   27   28 1   
    50   29   30 1   
    51   29   58 1   
    52   29   59 1   
    53   30   31 1   
    54   30   32 1   
    55   30   64 1   
    56   31   60 1   
    57   32   33 ar  
    58   32   38 ar  
    59   33   34 1   
    60   33   35 ar  
    61   35   36 ar  
    62   35   61 1   
    63   36   37 ar  
    64   36   62 1   
    65   37   38 ar  
    66   37   63 1   
    67   38   39 1   
@<TRIPOS>SUBSTRUCTURE
     1 708         1 TEMP              0 ****  ****    0 ROOT
