@<TRIPOS>MOLECULE
709
   42    44     1     0     0
SMALL
bcc


@<TRIPOS>ATOM
      1 C1         -0.0820   -0.2540   -0.0790 ca        1 709      0.009000
      2 C2          1.1890    0.3950   -0.0540 ca        1 709     -0.080000
      3 C3          1.6630    0.9780    1.0890 ca        1 709     -0.141000
      4 C4          0.8730    0.9390    2.2690 ca        1 709     -0.286900
      5 C5         -0.3740    0.3460    2.2690 ca        1 709     -0.032000
      6 C6         -0.8910   -0.2580    1.0930 ca        1 709     -0.082000
      7 C7         -2.1900   -0.8920    1.0420 ca        1 709      0.096600
      8 C8         -2.5810   -1.5260   -0.1400 ca        1 709     -0.145000
      9 C9         -1.7500   -1.5280   -1.2730 ca        1 709     -0.054000
     10 C10        -0.5270   -0.8960   -1.2570 ca        1 709     -0.155000
     11 C11         1.3920    1.5650    3.4980 ce        1 709      0.600800
     12 N12         2.6090    0.8290    4.0100 n4        1 709     -0.826600
     13 N13         1.0130    2.5760    4.1780 n2        1 709     -0.720100
     14 N14        -3.0190   -0.8500    2.1690 n         1 709     -0.488100
     15 C15        -4.0620   -1.7400    2.4570 c         1 709      0.685700
     16 C16        -4.8240   -1.4480    3.7080 ca        1 709     -0.128600
     17 O17        -4.2900   -2.7360    1.7550 o         1 709     -0.549100
     18 C18        -4.8930   -2.4700    4.6610 ca        1 709     -0.116000
     19 C19        -5.5990   -2.2730    5.8460 ca        1 709     -0.095000
     20 C20        -6.2390   -1.0600    6.0850 ca        1 709     -0.180000
     21 C21        -6.1750   -0.0450    5.1210 ca        1 709      0.122100
     22 C22        -5.4740   -0.2230    3.9070 ca        1 709     -0.078300
     23 C23        -5.4810    0.8580    2.8950 c3        1 709     -0.056800
     24 O24        -6.7780    1.1780    5.3060 oh        1 709     -0.494100
     25 H2          1.7820    0.4160   -0.9840 ha        1 709      0.161000
     26 H3          2.6310    1.5010    1.0910 ha        1 709      0.134000
     27 H5         -0.9560    0.3310    3.2050 ha        1 709      0.138000
     28 H8         -3.5560   -2.0450   -0.2030 ha        1 709      0.188000
     29 H9         -2.1020   -2.0410   -2.1840 ha        1 709      0.160000
     30 H10         0.1140   -0.8830   -2.1520 ha        1 709      0.154000
     31 H121        2.3170   -0.1100    4.2980 hn        1 709      0.469133
     32 H122        3.2760    0.7490    3.2340 hn        1 709      0.469133
     33 H13         0.2210    3.0940    3.8570 hn        1 709      0.488400
     34 H14        -2.9450   -0.0460    2.7520 hn        1 709      0.319500
     35 H18        -4.4040   -3.4360    4.4580 ha        1 709      0.155000
     36 H19        -5.6580   -3.0810    6.5910 ha        1 709      0.150000
     37 H20        -6.8010   -0.9010    7.0180 ha        1 709      0.148000
     38 H231       -4.6050    1.5380    3.0430 hc        1 709      0.054700
     39 H232       -6.4100    1.4770    2.9950 hc        1 709      0.054700
     40 H233       -5.4490    0.4430    1.8580 hc        1 709      0.054700
     41 H24        -7.3340    1.1230    6.0980 ho        1 709      0.431000
     42 H123        3.0520    1.3100    4.8010 hn        1 709      0.469133
@<TRIPOS>BOND
     1    1    2 ar  
     2    1    6 ar  
     3    1   10 ar  
     4    2    3 ar  
     5    2   25 1   
     6    3    4 ar  
     7    3   26 1   
     8    4    5 ar  
     9    4   11 1   
    10    5    6 ar  
    11    5   27 1   
    12    6    7 ar  
    13    7    8 ar  
    14    7   14 1   
    15    8    9 ar  
    16    8   28 1   
    17    9   10 ar  
    18    9   29 1   
    19   10   30 1   
    20   11   12 1   
    21   11   13 2   
    22   12   31 1   
    23   12   32 1   
    24   12   42 1   
    25   13   33 1   
    26   14   15 1   
    27   14   34 1   
    28   15   16 1   
    29   15   17 2   
    30   16   18 ar  
    31   16   22 ar  
    32   18   19 ar  
    33   18   35 1   
    34   19   20 ar  
    35   19   36 1   
    36   20   21 ar  
    37   20   37 1   
    38   21   22 ar  
    39   21   24 1   
    40   22   23 1   
    41   23   38 1   
    42   23   39 1   
    43   23   40 1   
    44   24   41 1   
@<TRIPOS>SUBSTRUCTURE
     1 709         1 TEMP              0 ****  ****    0 ROOT
