@<TRIPOS>MOLECULE
709
   41    43     1     0     0
SMALL
bcc


@<TRIPOS>ATOM
      1 C1         -3.1410    1.7340   -0.1980 ca        1 709     -0.009000
      2 C2         -4.4470    1.1710   -0.1530 ca        1 709     -0.124000
      3 C3         -4.6320   -0.1840   -0.0550 ca        1 709     -0.110000
      4 C4         -3.5030   -1.0410    0.0010 ca        1 709     -0.144900
      5 C5         -2.2280   -0.5220   -0.0550 ca        1 709     -0.079000
      6 C6         -2.0080    0.8800   -0.1450 ca        1 709     -0.067000
      7 C7         -0.6890    1.4760   -0.1940 ca        1 709      0.079600
      8 C8         -0.5740    2.8600   -0.3010 ca        1 709     -0.162000
      9 C9         -1.7180    3.6810   -0.3610 ca        1 709     -0.094000
     10 C10        -2.9760    3.1400   -0.3060 ca        1 709     -0.150000
     11 C11        -3.7080   -2.5220    0.1050 ce        1 709      0.653800
     12 N12        -4.6730   -2.9100    1.0600 nh        1 709     -0.960800
     13 N13        -3.0510   -3.2970   -0.7060 n2        1 709     -0.832100
     14 N14         0.4420    0.6490   -0.1030 n         1 709     -0.470100
     15 C15         1.7310    0.9510   -0.5320 c         1 709      0.680700
     16 C16         2.7070   -0.1800   -0.4070 ca        1 709     -0.109600
     17 O17         2.0590    2.0620   -0.9820 o         1 709     -0.575100
     18 C18         2.4750   -1.3370   -1.1560 ca        1 709     -0.141000
     19 C19         3.3730   -2.4020   -1.0930 ca        1 709     -0.104000
     20 C20         4.4980   -2.3240   -0.2810 ca        1 709     -0.137000
     21 C21         4.7220   -1.1590    0.4720 ca        1 709      0.119100
     22 C22         3.8320   -0.0660    0.4210 ca        1 709     -0.107300
     23 C23         4.1050    1.1490    1.2230 c3        1 709     -0.068800
     24 O24         5.8530   -1.1760    1.2560 oh        1 709     -0.497100
     25 H2         -5.3110    1.8510   -0.2060 ha        1 709      0.137000
     26 H3         -5.6450   -0.6130   -0.0400 ha        1 709      0.146000
     27 H5         -1.3830   -1.2280   -0.0490 ha        1 709      0.139000
     28 H8          0.4160    3.3450   -0.3520 ha        1 709      0.170000
     29 H9         -1.5770    4.7690   -0.4510 ha        1 709      0.137000
     30 H10        -3.8720    3.7770   -0.3490 ha        1 709      0.136000
     31 H121       -4.6310   -3.8460    1.3870 hn        1 709      0.400800
     32 H122       -4.8780   -2.2370    1.7610 hn        1 709      0.400800
     33 H13        -3.2110   -4.2780   -0.6130 hn        1 709      0.383400
     34 H14         0.2870   -0.2860    0.2030 hn        1 709      0.323500
     35 H18         1.5910   -1.4050   -1.8080 ha        1 709      0.146000
     36 H19         3.1910   -3.3090   -1.6910 ha        1 709      0.143000
     37 H20         5.2170   -3.1530   -0.2160 ha        1 709      0.155000
     38 H231        3.3290    1.9380    1.0560 hc        1 709      0.055700
     39 H232        4.1230    0.9000    2.3140 hc        1 709      0.055700
     40 H233        5.0960    1.5860    0.9390 hc        1 709      0.055700
     41 H24         5.9510   -0.3100    1.6780 ho        1 709      0.424000
@<TRIPOS>BOND
     1    1    2 ar  
     2    1    6 ar  
     3    1   10 ar  
     4    2    3 ar  
     5    2   25 1   
     6    3    4 ar  
     7    3   26 1   
     8    4    5 ar  
     9    4   11 1   
    10    5    6 ar  
    11    5   27 1   
    12    6    7 ar  
    13    7    8 ar  
    14    7   14 1   
    15    8    9 ar  
    16    8   28 1   
    17    9   10 ar  
    18    9   29 1   
    19   10   30 1   
    20   11   12 1   
    21   11   13 2   
    22   12   31 1   
    23   12   32 1   
    24   13   33 1   
    25   14   15 1   
    26   14   34 1   
    27   15   16 1   
    28   15   17 2   
    29   16   18 ar  
    30   16   22 ar  
    31   18   19 ar  
    32   18   35 1   
    33   19   20 ar  
    34   19   36 1   
    35   20   21 ar  
    36   20   37 1   
    37   21   22 ar  
    38   21   24 1   
    39   22   23 1   
    40   23   38 1   
    41   23   39 1   
    42   23   40 1   
    43   24   41 1   
@<TRIPOS>SUBSTRUCTURE
     1 709         1 TEMP              0 ****  ****    0 ROOT
