@<TRIPOS>MOLECULE
709
   43    45     1     0     0
SMALL
bcc


@<TRIPOS>ATOM
      1 C1         -0.7250    0.1080    0.1890 ca        1 709     -0.015000
      2 C2          0.4780   -0.5410   -0.2060 ca        1 709     -0.057000
      3 C3          1.4120   -0.9260    0.7260 ca        1 709     -0.126000
      4 C4          1.1750   -0.6670    2.0990 ca        1 709     -0.203900
      5 C5          0.0170   -0.0350    2.5120 ca        1 709     -0.092000
      6 C6         -0.9650    0.3670    1.5660 ca        1 709     -0.019000
      7 C7         -2.2030    1.0110    1.9150 ca        1 709     -0.047400
      8 C8         -3.1260    1.3550    0.9370 ca        1 709     -0.045000
      9 C9         -2.8610    1.0850   -0.4230 ca        1 709     -0.104000
     10 C10        -1.6860    0.4780   -0.7930 ca        1 709     -0.050000
     11 C11         2.1420   -1.1520    3.1130 ce        1 709      0.570800
     12 N12         3.5280   -0.6040    2.9080 n4        1 709     -0.819600
     13 N13         1.9880   -1.9460    4.0990 n2        1 709     -0.684100
     14 N14        -2.5080    1.3350    3.3110 n4        1 709     -0.562200
     15 C15        -3.0410    0.1170    4.0990 c         1 709      0.614700
     16 C16        -4.4980    0.0590    4.2070 ca        1 709     -0.183600
     17 O17        -2.1640   -0.6030    4.5460 o         1 709     -0.437100
     18 C18        -5.1890    1.1830    4.6980 ca        1 709     -0.149000
     19 C19        -6.5660    1.1270    4.8720 ca        1 709     -0.072000
     20 C20        -7.2720   -0.0340    4.5500 ca        1 709     -0.141000
     21 C21        -6.5810   -1.1480    4.0610 ca        1 709      0.139100
     22 C22        -5.1720   -1.1280    3.8850 ca        1 709     -0.014300
     23 C23        -4.5090   -2.3490    3.3810 c3        1 709     -0.072800
     24 O24        -7.1980   -2.3210    3.7160 oh        1 709     -0.472100
     25 H2          0.6440   -0.7420   -1.2800 ha        1 709      0.183000
     26 H3          2.3170   -1.4640    0.4040 ha        1 709      0.156000
     27 H5         -0.1490    0.1240    3.5900 ha        1 709      0.147000
     28 H8         -4.0840    1.8480    1.1880 ha        1 709      0.173000
     29 H9         -3.6140    1.3720   -1.1790 ha        1 709      0.191000
     30 H10        -1.4720    0.2660   -1.8570 ha        1 709      0.184000
     31 H121        3.5020    0.4150    3.0250 hn        1 709      0.477800
     32 H122        3.8300   -0.8270    1.9520 hn        1 709      0.477800
     33 H13         1.0900   -2.3510    4.2720 hn        1 709      0.496400
     34 H14        -1.6560    1.6870    3.7620 hn        1 709      0.460800
     35 H18        -4.6510    2.0940    5.0010 ha        1 709      0.135000
     36 H19        -7.1080    2.0010    5.2740 ha        1 709      0.175000
     37 H20        -8.3650   -0.0740    4.6890 ha        1 709      0.176000
     38 H231       -4.6400   -3.1770    4.1270 hc        1 709      0.072033
     39 H232       -3.4190   -2.2000    3.1990 hc        1 709      0.072033
     40 H233       -4.9990   -2.6830    2.4280 hc        1 709      0.072033
     41 H24        -8.1460   -2.2490    3.9190 ho        1 709      0.453000
     42 H123        4.2000   -1.0060    3.5790 hn        1 709      0.477800
     43 H142       -3.2240    2.0750    3.3300 hn        1 709      0.460800
@<TRIPOS>BOND
     1    1    2 ar  
     2    1    6 ar  
     3    1   10 ar  
     4    2    3 ar  
     5    2   25 1   
     6    3    4 ar  
     7    3   26 1   
     8    4    5 ar  
     9    4   11 1   
    10    5    6 ar  
    11    5   27 1   
    12    6    7 ar  
    13    7    8 ar  
    14    7   14 1   
    15    8    9 ar  
    16    8   28 1   
    17    9   10 ar  
    18    9   29 1   
    19   10   30 1   
    20   11   12 1   
    21   11   13 2   
    22   12   31 1   
    23   12   32 1   
    24   12   42 1   
    25   13   33 1   
    26   14   15 1   
    27   14   34 1   
    28   14   43 1   
    29   15   16 1   
    30   15   17 2   
    31   16   18 ar  
    32   16   22 ar  
    33   18   19 ar  
    34   18   35 1   
    35   19   20 ar  
    36   19   36 1   
    37   20   21 ar  
    38   20   37 1   
    39   21   22 ar  
    40   21   24 1   
    41   22   23 1   
    42   23   38 1   
    43   23   39 1   
    44   23   40 1   
    45   24   41 1   
@<TRIPOS>SUBSTRUCTURE
     1 709         1 TEMP              0 ****  ****    0 ROOT
