@<TRIPOS>MOLECULE
709
   42    44     1     0     0
SMALL
bcc


@<TRIPOS>ATOM
      1 C1         -0.0070   -0.5680   -0.0170 ca        1 709      0.011000
      2 C2          1.3370   -0.0970    0.0660 ca        1 709     -0.080000
      3 C3          1.8380    0.4120    1.2330 ca        1 709     -0.141000
      4 C4          1.0050    0.4660    2.3830 ca        1 709     -0.285900
      5 C5         -0.3010    0.0180    2.3330 ca        1 709     -0.032000
      6 C6         -0.8490   -0.4960    1.1300 ca        1 709     -0.084000
      7 C7         -2.2130   -0.9700    1.0250 ca        1 709      0.100600
      8 C8         -2.6420   -1.5150   -0.1880 ca        1 709     -0.149000
      9 C9         -1.7820   -1.5890   -1.2970 ca        1 709     -0.053000
     10 C10        -0.4900   -1.1170   -1.2260 ca        1 709     -0.157000
     11 C11         1.5630    0.9570    3.6550 ce        1 709      0.599800
     12 N12         1.9920    2.4020    3.5470 nz        1 709     -0.826600
     13 N13         1.7400    0.3980    4.7890 n2        1 709     -0.721100
     14 N14        -3.0650   -0.8650    2.1290 ns        1 709     -0.486100
     15 C15        -4.2300   -1.6100    2.3540 c         1 709      0.686700
     16 C16        -4.9420   -1.3060    3.6320 ca        1 709     -0.128600
     17 O17        -4.6100   -2.4960    1.5750 o         1 709     -0.546100
     18 C18        -5.1600   -2.3760    4.5060 ca        1 709     -0.114000
     19 C19        -5.8290   -2.1680    5.7110 ca        1 709     -0.094000
     20 C20        -6.2830   -0.8960    6.0480 ca        1 709     -0.180000
     21 C21        -6.0710    0.1690    5.1610 ca        1 709      0.120100
     22 C22        -5.4040   -0.0180    3.9300 ca        1 709     -0.080300
     23 C23        -5.2530    1.1250    3.0000 c3        1 709     -0.054800
     24 O24        -6.4850    1.4510    5.4460 oh        1 709     -0.497100
     25 H2          1.9700   -0.1640   -0.8350 ha        1 709      0.161000
     26 H3          2.8870    0.7380    1.2940 ha        1 709      0.131000
     27 H5         -0.9050    0.0520    3.2540 ha        1 709      0.136000
     28 H8         -3.6700   -1.9050   -0.2980 ha        1 709      0.189000
     29 H9         -2.1640   -2.0300   -2.2330 ha        1 709      0.160000
     30 H10         0.1780   -1.1670   -2.0990 ha        1 709      0.154000
     31 H121        1.1550    2.9730    3.3930 hn        1 709      0.468800
     32 H122        2.4790    2.7280    4.3910 hn        1 709      0.468800
     33 H13         1.4820   -0.5630    4.8890 hn        1 709      0.489400
     34 H14        -2.8660   -0.1470    2.7880 hn        1 709      0.317500
     35 H18        -4.8170   -3.3850    4.2280 ha        1 709      0.157000
     36 H19        -6.0050   -3.0130    6.3940 ha        1 709      0.152000
     37 H20        -6.8150   -0.7270    6.9960 ha        1 709      0.148000
     38 H231       -4.2830    1.6520    3.1840 hc        1 709      0.053033
     39 H232       -6.0780    1.8660    3.1580 hc        1 709      0.053033
     40 H233       -5.2860    0.7880    1.9350 hc        1 709      0.053033
     41 H24        -7.0520    1.4160    6.2320 ho        1 709      0.431000
     42 H123        2.6110    2.4870    2.7340 hn        1 709      0.468800
@<TRIPOS>BOND
     1    1    2 ar  
     2    1    6 ar  
     3    1   10 ar  
     4    2    3 ar  
     5    2   25 1   
     6    3    4 ar  
     7    3   26 1   
     8    4    5 ar  
     9    4   11 1   
    10    5    6 ar  
    11    5   27 1   
    12    6    7 ar  
    13    7    8 ar  
    14    7   14 1   
    15    8    9 ar  
    16    8   28 1   
    17    9   10 ar  
    18    9   29 1   
    19   10   30 1   
    20   11   12 1   
    21   11   13 2   
    22   12   31 1   
    23   12   32 1   
    24   12   42 1   
    25   13   33 1   
    26   14   15 1   
    27   14   34 1   
    28   15   16 1   
    29   15   17 2   
    30   16   18 ar  
    31   16   22 ar  
    32   18   19 ar  
    33   18   35 1   
    34   19   20 ar  
    35   19   36 1   
    36   20   21 ar  
    37   20   37 1   
    38   21   22 ar  
    39   21   24 1   
    40   22   23 1   
    41   23   38 1   
    42   23   39 1   
    43   23   40 1   
    44   24   41 1   
@<TRIPOS>SUBSTRUCTURE
     1 709         1 TEMP              0 ****  ****    0 ROOT
