@<TRIPOS>MOLECULE
709
   41    36     1     0     0
SMALL
bcc


@<TRIPOS>ATOM
      1 C1          2.1170    0.3680   -2.9010 c1        1 709     -0.010000
      2 C2          3.5110    0.4160   -2.9050 c1        1 709     -0.117000
      3 C3          4.2110    0.4160   -1.7060 c1        1 709     -0.117000
      4 C4          3.5270    0.3700   -0.5060 c1        1 709     -0.118000
      5 C5          2.1370    0.3220   -0.4990 c1        1 709     -0.082000
      6 C6          1.4310    0.3210   -1.7070 c1        1 709     -0.067000
      7 C7          0.0150    0.3100   -1.7070 c2        1 709      0.086000
      8 C8         -0.6780    0.3460   -2.9130 c1        1 709     -0.159000
      9 C9          0.0290    0.3930   -4.1280 c1        1 709     -0.093000
     10 C10         1.4120    0.4040   -4.1240 c2        1 709     -0.150000
     11 C11         4.3600    0.3890    0.8090 c2        1 709      0.112000
     12 N12         4.7290    1.6270    1.3930 n3        1 709     -0.330000
     13 N13         4.7340   -0.7870    1.4020 n1        1 709     -0.299000
     14 N14        -0.6260    0.2530   -0.4540 n         1 709     -0.327000
     15 C15        -2.0040   -0.2000   -0.3640 c2        1 709      0.357000
     16 C16        -2.7050   -0.2650    1.0010 c2        1 709     -0.101000
     17 O17        -2.6270   -0.5420   -1.4110 o         1 709     -0.333000
     18 C18        -3.5180    0.8610    0.9240 c2        1 709     -0.138000
     19 C19        -4.5000    1.0900    1.9050 c1        1 709     -0.101000
     20 C20        -4.6570    0.1900    2.9510 c1        1 709     -0.192000
     21 C21        -3.8480   -0.9290    3.0280 c1        1 709      0.071000
     22 C22        -2.8620   -1.1580    2.0420 c1        1 709     -0.038000
     23 C23        -1.9360   -2.3460    2.1640 c3        1 709     -0.189000
     24 O24        -3.9840   -1.8260    4.1140 oh        1 709     -0.246000
     25 H2          4.0150    0.4500   -3.7860 ha        1 709      0.139500
     26 H3          5.1490    0.4510   -1.7110 ha        1 709      0.139500
     27 H5          1.6600    0.2890    0.3390 ha        1 709      0.141000
     28 H8         -1.6740    0.3370   -2.9170 ha        1 709      0.171000
     29 H9         -0.4550    0.4200   -4.9750 ha        1 709      0.138000
     30 H10         1.9150    0.4380   -4.9910 ha        1 709      0.136000
     31 H121        5.0770    1.6450    2.2110 hn        1 709      0.191000
     32 H122        4.5660    2.3990    0.9550 hn        1 709      0.191000
     33 H13         4.4940   -1.5950    1.0230 DU        1 709      0.153000
     34 H14        -0.1700    0.5690    0.3360 hn        1 709      0.238000
     35 H18        -3.4120    1.4760    0.2060 ha        1 709      0.142000
     36 H19        -5.0920    1.9120    1.8480 ha        1 709      0.140000
     37 H20        -5.3550    0.3520    3.6480 ha        1 709      0.138000
     38 H231       -2.0010   -2.9030    1.3440 hc        1 709      0.100667
     39 H232       -2.1800   -2.8550    2.9050 hc        1 709      0.100667
     40 H233       -0.9820   -2.0200    2.2770 hc        1 709      0.100667
     41 H24        -3.8240   -1.3910    4.8840 ho        1 709      0.220000
@<TRIPOS>BOND
     1    1    6 1   
     2    1   10 1   
     3    2    3 1   
     4    2   25 1   
     5    3   26 1   
     6    4    5 1   
     7    4   11 1   
     8    5   27 1   
     9    6    7 1   
    10    7    8 1   
    11    7   14 1   
    12    8   28 1   
    13    9   10 1   
    14    9   29 1   
    15   10   30 1   
    16   11   12 1   
    17   11   13 1   
    18   12   31 1   
    19   12   32 1   
    20   14   15 1   
    21   14   34 1   
    22   15   16 1   
    23   15   17 1   
    24   16   18 1   
    25   16   22 1   
    26   18   19 1   
    27   18   35 1   
    28   19   36 1   
    29   20   21 1   
    30   20   37 1   
    31   21   24 1   
    32   22   23 1   
    33   23   38 1   
    34   23   39 1   
    35   23   40 1   
    36   24   41 1   
@<TRIPOS>SUBSTRUCTURE
     1 709         1 TEMP              0 ****  ****    0 ROOT
