@<TRIPOS>MOLECULE
70U
   41    42     1     0     0
SMALL
bcc


@<TRIPOS>ATOM
      1 N1          0.1650    0.1080    0.2180 n         1 70U     -0.298000
      2 C2          0.3040   -1.2100    0.8500 c         1 70U      0.572400
      3 S2         -0.4950   -2.5350    0.2070 s         1 70U     -0.595400
      4 N3          1.0940   -1.3570    2.0730 n         1 70U     -0.551500
      5 C4          1.5890   -0.2050    2.7430 c         1 70U      0.707700
      6 O4          2.0980   -0.3120    3.8420 o         1 70U     -0.669500
      7 C5          1.4300    1.1320    2.1280 cc        1 70U     -0.307400
      8 C6          0.6980    1.2690    0.8610 cd        1 70U      0.095600
      9 C5M         1.8760    2.3850    2.8920 c3        1 70U     -0.056200
     10 C8          3.3760    2.3440    3.1030 c         1 70U      0.650100
     11 O8          4.1120    2.1040    2.1670 o         1 70U     -0.584000
     12 O9          3.9190    2.7100    4.3450 os        1 70U     -0.420900
     13 C9          5.1050    3.4690    4.2490 c3        1 70U      0.127700
     14 C1'        -0.5570    0.2390   -0.9750 c3        1 70U      0.263500
     15 O2'         0.9140    0.5590   -2.7010 oh        1 70U     -0.629800
     16 C2'         0.0680   -0.3840   -1.9570 c3        1 70U      0.028100
     17 O3'        -1.1230   -0.2240   -3.9910 oh        1 70U     -0.972800
     18 C3'        -1.0610   -0.9270   -2.8690 c3        1 70U      0.275100
     19 C4'        -2.3950   -0.7580   -2.0420 c3        1 70U      0.052100
     20 O4'        -2.0130   -0.4790   -0.8340 os        1 70U     -0.417600
     21 C5'        -3.2000   -2.0630   -2.0580 c3        1 70U      0.177400
     22 O5'        -4.2750   -1.9550   -3.0220 os        1 70U     -0.577200
     23 P          -5.5140   -2.9880   -2.9130 p5        1 70U      1.337900
     24 OP1        -6.4490   -2.7830   -4.0910 o         1 70U     -0.734500
     25 OP2        -4.9890   -4.4090   -2.9260 o         1 70U     -0.734500
     26 OP3        -6.2680   -2.7390   -1.6200 o         1 70U     -0.734500
     27 HN3         1.2330   -2.1900    2.4310 hn        1 70U      0.342500
     28 H6          0.5040    2.1500    0.5070 h4        1 70U      0.241000
     29 H71         1.4250    2.4150    3.7610 hc        1 70U      0.106700
     30 H72         1.6410    3.1840    2.3750 hc        1 70U      0.106700
     31 H91         5.2970    3.8890    5.1160 h1        1 70U      0.043700
     32 H92         5.8540    2.8780    3.9970 h1        1 70U      0.043700
     33 H93         4.9940    4.1640    3.5660 h1        1 70U      0.043700
     34 H1'        -0.6690    1.1830   -1.1970 h2        1 70U      0.110700
     35 HO2'        1.6290    0.1380   -3.0010 ho        1 70U      0.437000
     36 H2'         0.6090   -1.1250   -1.6030 h1        1 70U      0.032700
     37 HO3'       -0.9060   -0.7450   -4.6800 ho        1 70U      0.430000
     38 H3'        -0.9070   -1.8730   -3.0710 h1        1 70U     -0.055300
     39 H4'        -2.9280   -0.0250   -2.4070 h1        1 70U      0.072700
     40 H5'        -3.5740   -2.2260   -1.1700 h1        1 70U      0.019700
     41 H5''       -2.6120   -2.8060   -2.3060 h1        1 70U      0.019700
@<TRIPOS>BOND
     1    1    2 1   
     2    1    8 1   
     3    1   14 1   
     4    2    3 2   
     5    2    4 1   
     6    4    5 1   
     7    4   27 1   
     8    5    6 2   
     9    5    7 1   
    10    7    8 2   
    11    7    9 1   
    12    8   28 1   
    13    9   10 1   
    14    9   29 1   
    15    9   30 1   
    16   10   11 2   
    17   10   12 1   
    18   12   13 1   
    19   13   31 1   
    20   13   32 1   
    21   13   33 1   
    22   14   16 1   
    23   14   20 1   
    24   14   34 1   
    25   15   16 1   
    26   15   35 1   
    27   16   18 1   
    28   16   36 1   
    29   17   18 1   
    30   17   37 1   
    31   18   19 1   
    32   18   38 1   
    33   19   20 1   
    34   19   21 1   
    35   19   39 1   
    36   21   22 1   
    37   21   40 1   
    38   21   41 1   
    39   22   23 1   
    40   23   24 1   
    41   23   25 1   
    42   23   26 1   
@<TRIPOS>SUBSTRUCTURE
     1 70U         1 TEMP              0 ****  ****    0 ROOT
