@<TRIPOS>MOLECULE
70U
   41    42     1     0     0
SMALL
bcc


@<TRIPOS>ATOM
      1 N1         -2.1380    0.0760    1.6710 n         1 70U     -0.292000
      2 C2         -3.1640    0.3250    2.5810 c         1 70U      0.569400
      3 S2         -4.7430    0.0430    2.3330 s         1 70U     -0.582400
      4 N3         -2.8020    0.8430    3.8320 n         1 70U     -0.549500
      5 C4         -1.4770    1.0480    4.2460 c         1 70U      0.708700
      6 O4         -1.2810    1.5330    5.3820 o         1 70U     -0.677500
      7 C5         -0.4410    0.6510    3.2910 cc        1 70U     -0.310400
      8 C6         -0.8160    0.1790    2.0570 cd        1 70U      0.091600
      9 C5M         0.9520    0.7440    3.7810 c3        1 70U     -0.048200
     10 C8          1.9930    0.8850    2.7090 c         1 70U      0.621100
     11 O8          2.7210    1.8630    2.4980 o         1 70U     -0.577000
     12 O9          2.1500   -0.2370    1.9640 os        1 70U     -0.411900
     13 C9          3.1460   -0.2300    0.9390 c3        1 70U      0.096700
     14 C1'        -2.4670   -0.2730    0.2550 c3        1 70U      0.261500
     15 O2'        -3.4560    1.4890   -1.0720 oh        1 70U     -0.631800
     16 C2'        -2.2320    0.8960   -0.7380 c3        1 70U      0.023100
     17 O3'        -2.4000    0.0910   -2.9910 o         1 70U     -0.853500
     18 C3'        -1.5470    0.2150   -2.0030 c3        1 70U      0.369800
     19 C4'        -1.0200   -1.1350   -1.4050 c3        1 70U      0.043100
     20 O4'        -1.6640   -1.3760   -0.1350 os        1 70U     -0.417600
     21 C5'         0.5000   -1.1230   -1.2520 c3        1 70U      0.175400
     22 O5'         0.9810   -2.2610   -0.6080 os        1 70U     -0.607200
     23 P           2.1800   -3.1400   -1.3230 p5        1 70U      1.431800
     24 OP1         2.2270   -2.8690   -2.7720 o         1 70U     -0.840500
     25 OP2         3.3680   -3.0330   -0.4460 o         1 70U     -0.840500
     26 OP3         1.4280   -4.5610   -1.0350 oh        1 70U     -0.781400
     27 HN3        -3.5520    1.0510    4.4590 hn        1 70U      0.344500
     28 H6         -0.0760   -0.1720    1.2950 h4        1 70U      0.234000
     29 H71         1.1960   -0.1830    4.3720 hc        1 70U      0.077200
     30 H72         1.0420    1.6300    4.4700 hc        1 70U      0.077200
     31 H91         3.0330   -1.2540    0.4640 h1        1 70U      0.070700
     32 H92         2.9380    0.5930    0.2150 h1        1 70U      0.070700
     33 H93         4.1530   -0.0920    1.3980 h1        1 70U      0.070700
     34 H1'        -3.5470   -0.6130    0.2550 h2        1 70U      0.113700
     35 HO2'       -3.7090    1.1270   -1.9480 ho        1 70U      0.438000
     36 H2'        -1.5870    1.6970   -0.2990 h1        1 70U      0.031700
     37 HO3'        0.6030   -4.4590   -0.5730 ho        1 70U      0.434000
     38 H3'        -0.6420    0.8580   -2.2450 h1        1 70U     -0.056300
     39 H4'        -1.3420   -1.9980   -2.0450 h1        1 70U      0.073700
     40 H5'         0.9530   -1.0420   -2.2820 h1        1 70U      0.025700
     41 H5''        0.8010   -0.2220   -0.6380 h1        1 70U      0.025700
@<TRIPOS>BOND
     1    1    2 1   
     2    1    8 1   
     3    1   14 1   
     4    2    3 2   
     5    2    4 1   
     6    4    5 1   
     7    4   27 1   
     8    5    6 2   
     9    5    7 1   
    10    7    8 2   
    11    7    9 1   
    12    8   28 1   
    13    9   10 1   
    14    9   29 1   
    15    9   30 1   
    16   10   11 2   
    17   10   12 1   
    18   12   13 1   
    19   13   31 1   
    20   13   32 1   
    21   13   33 1   
    22   14   16 1   
    23   14   20 1   
    24   14   34 1   
    25   15   16 1   
    26   15   35 1   
    27   16   18 1   
    28   16   36 1   
    29   17   18 1   
    30   18   19 1   
    31   18   38 1   
    32   19   20 1   
    33   19   21 1   
    34   19   39 1   
    35   21   22 1   
    36   21   40 1   
    37   21   41 1   
    38   22   23 1   
    39   23   24 1   
    40   23   25 1   
    41   23   26 1   
    42   26   37 1   
@<TRIPOS>SUBSTRUCTURE
     1 70U         1 TEMP              0 ****  ****    0 ROOT
