@<TRIPOS>MOLECULE
70X
   58    83     1     0     0
SMALL
bcc


@<TRIPOS>ATOM
      1 C27         0.0000    0.0000    0.0000 c2        1 70X      0.133000
      2 C28         1.3830    0.0000    0.0000 c3        1 70X      0.039000
      3 C29         2.0740    0.0000    1.1970 c3        1 70X      0.142000
      4 C26        -0.6910    0.0080    1.1970 c2        1 70X      0.099000
      5 C25        -0.0000    0.0090    2.3950 c3        1 70X      0.085000
      6 C24         1.3820    0.0010    2.3950 DU        1 70X     -0.245000
      7 C23         2.1360    0.0010    3.6990 c3        1 70X      0.205000
      8 C14         4.0980    4.9560    7.0910 DU        1 70X     -0.372000
      9 C15         3.8990    3.6330    6.7500 c2        1 70X     -0.032000
     10 C16         3.2200    3.3130    5.5730 c3        1 70X     -0.420000
     11 C17         2.7460    4.3360    4.7490 c2        1 70X     -0.089000
     12 C18         2.9510    5.6530    5.1010 c3        1 70X      0.020000
     13 C19         3.6240    5.9630    6.2690 c2        1 70X     -0.067000
     14 C20         3.0440    1.6290    5.2700 DU        1 70X      0.310000
     15 N1          8.4560    4.2620    7.7050 n7        1 70X     -0.493000
     16 C2          9.1850    5.5230    7.9320 DU        1 70X      0.166000
     17 C3          8.3630    6.6630    7.3210 c3        1 70X     -0.108000
     18 C4          6.9150    6.5160    7.6930 DU        1 70X      0.052000
     19 N5          6.3780    5.3430    8.0600 n3        1 70X     -0.215000
     20 C6          7.1540    4.2070    8.1730 c2        1 70X      0.048000
     21 N7          6.6850    3.1210    8.7160 n2        1 70X     -0.166000
     22 C11        10.5570    5.4560    7.2600 c3        1 70X      0.198000
     23 O21         3.4380    0.7050    5.9540 o         1 70X     -0.158000
     24 N22         2.3810    1.3820    4.1220 ny        1 70X     -0.115000
     25 H1          0.5440    0.6390    0.6850 DU        1 70X      0.010000
     26 H2          1.7750    0.4980    0.8780 DU        1 70X     -0.036000
     27 H3          2.7540    0.4930    1.8810 hc        1 70X      0.152000
     28 H4          0.1170    0.4650    1.7550 DU        1 70X     -0.022000
     29 H5          0.6300    0.6250    3.0260 DU        1 70X      0.261000
     30 H6          1.6270   -0.1850    2.7620 DU        1 70X     -0.222000
     31 H7          2.0880    0.0000    2.6170 DU        1 70X     -0.032000
     32 H8          3.7780    3.0570    5.8400 DU        1 70X      0.213000
     33 H9          2.0640    3.6860    4.2140 ha        1 70X      0.165000
     34 H10         2.3910    4.7700    4.8190 hc        1 70X      0.154000
     35 H11         3.5410    4.9700    5.8440 DU        1 70X      0.189000
     36 H12         7.6340    5.9210    7.0210 DU        1 70X      0.177000
     37 H13         7.5730    5.9230    7.3430 DU        1 70X      0.177000
     38 H14         6.0220    3.2620    7.9800 hn        1 70X      0.098000
     39 H16         4.3030    5.5700    7.4530 DU        1 70X      0.205500
     40 H17         4.4080    5.9850    7.6330 DU        1 70X      0.205500
     41 H18         9.0860    6.5340    8.7290 DU        1 70X      0.274000
     42 H19         9.6730    5.9160    6.8340 DU        1 70X     -0.044500
     43 H20         9.8150    4.7460    7.6040 DU        1 70X     -0.044500
     44 H21         9.5260    5.6110    7.5520 hc        1 70X     -0.423000
     45 H22         9.1030    4.5980    9.8630 DU        1 70X      0.121000
     46 H23         9.5550    3.9410    9.4540 hc        1 70X      0.173500
     47 H24        10.2630    3.6950    9.4690 hc        1 70X      0.173500
     48 H25        10.6150    6.4410    8.9680 DU        1 70X      0.251000
     49 H26        10.0310    6.2800    8.9380 DU        1 70X     -0.213000
     50 H27        10.9090    6.7120    9.0630 DU        1 70X      0.100000
     51 H28         3.1860    1.8590    4.4790 DU        1 70X      0.123000
     52 H29         8.8180    5.1510    7.9900 hn        1 70X      0.174000
     53 O8          6.2040    7.4980    7.6640 o         1 70X     -0.259000
     54 H222        2.8470    1.9920    4.7650 DU        1 70X      0.123000
     55 C9          4.8260    5.3020    8.3630 c3        1 70X      0.133000
     56 C10         9.3560    5.7570    9.4340 DU        1 70X     -0.283000
     57 C12        10.1720    4.6120   10.0390 c3        1 70X     -0.206000
     58 C13        10.0870    7.0810    9.6650 c3        1 70X      0.118000
@<TRIPOS>BOND
     1    1    2 1   
     2    1    4 1   
     3    1   25 1   
     4    2    3 1   
     5    2   25 1   
     6    2   26 1   
     7    3    6 1   
     8    3   26 1   
     9    3   27 1   
    10    4    5 1   
    11    4   28 1   
    12    5    6 1   
    13    5   28 1   
    14    5   29 1   
    15    6    7 1   
    16    6   29 1   
    17    6   31 1   
    18    7   24 1   
    19    7   30 1   
    20    7   31 1   
    21    8    9 1   
    22    8   13 1   
    23    8   39 1   
    24    8   40 1   
    25    8   55 1   
    26    9   10 1   
    27    9   32 1   
    28   10   11 1   
    29   10   14 1   
    30   10   32 1   
    31   11   12 1   
    32   11   33 1   
    33   12   13 1   
    34   12   34 1   
    35   12   35 1   
    36   13   35 1   
    37   14   23 1   
    38   14   24 1   
    39   14   51 1   
    40   14   54 1   
    41   15   16 1   
    42   15   20 1   
    43   15   52 1   
    44   16   17 1   
    45   16   22 1   
    46   16   41 1   
    47   16   42 1   
    48   16   43 1   
    49   17   18 1   
    50   17   36 1   
    51   17   37 1   
    52   18   19 1   
    53   18   36 1   
    54   18   37 1   
    55   18   53 1   
    56   19   20 1   
    57   19   55 1   
    58   20   21 1   
    59   21   38 1   
    60   22   42 1   
    61   22   43 1   
    62   22   44 1   
    63   24   51 1   
    64   24   54 1   
    65   30   31 1   
    66   36   37 1   
    67   39   40 1   
    68   39   55 1   
    69   40   55 1   
    70   41   56 1   
    71   45   56 1   
    72   45   57 1   
    73   46   57 1   
    74   47   57 1   
    75   48   49 1   
    76   48   50 1   
    77   48   58 1   
    78   49   56 1   
    79   49   58 1   
    80   50   58 1   
    81   51   54 1   
    82   56   57 1   
    83   56   58 1   
@<TRIPOS>SUBSTRUCTURE
     1 70X         1 TEMP              0 ****  ****    0 ROOT
