@<TRIPOS>MOLECULE
70X
   58    58     1     0     0
SMALL
bcc


@<TRIPOS>ATOM
      1 C27         2.1920   -0.9990    1.7460 c2        1 70X     -0.172000
      2 C28         2.3620   -1.8560    2.7340 c1        1 70X     -0.108000
      3 C29         2.5950   -2.7940    3.5960 c2        1 70X     -0.175000
      4 C26         2.9540    0.1420    1.4620 c1        1 70X     -0.029000
      5 C25         3.4320    1.1780    2.3490 c3        1 70X     -0.197000
      6 C24         3.0770    1.1310    3.7890 c2        1 70X     -0.077000
      7 C23         3.2610    2.1150    4.6840 c2        1 70X     -0.232000
      8 C14         3.5990    5.4700    7.2610 c1        1 70X     -0.086000
      9 C15         2.9290    5.3160    6.2800 c1        1 70X     -0.234000
     10 C16         2.1160    5.1740    5.1090 c3        1 70X      0.013000
     11 C17         0.7810    4.4640    5.3880 c3        1 70X     -0.056000
     12 C18        -0.0870    5.3070    6.2310 c2        1 70X     -0.533000
     13 C19        -1.3200    5.6990    5.9780 c1        1 70X      0.288000
     14 C20         2.8360    4.4300    3.9980 c2        1 70X      0.261000
     15 N1          7.5570    4.6540    6.5170 n3        1 70X     -0.270000
     16 C2          8.6300    5.3240    7.2720 c3        1 70X      0.048000
     17 C3          8.1090    6.6730    7.7980 c3        1 70X     -0.181000
     18 C4          6.7120    6.6310    8.3570 c2        1 70X      0.321000
     19 N5          5.8850    5.5240    8.0620 n         1 70X     -0.332000
     20 C6          6.3110    4.4700    7.1860 c2        1 70X      0.244000
     21 N7          5.5890    3.4040    6.8930 n2        1 70X     -0.436000
     22 C11         9.7960    5.6220    6.3120 c3        1 70X     -0.216000
     23 O21         2.6520    4.5760    2.7980 o         1 70X     -0.181000
     24 N22         3.8790    3.3980    4.3710 n4        1 70X     -0.064000
     25 H1          1.4400   -1.2430    0.9580 ha        1 70X      0.194000
     26 H2          3.3310   -3.5950    3.4170 ha        1 70X      0.160000
     27 H3          2.0610   -2.8560    4.5580 ha        1 70X      0.160000
     28 H4          4.5610    1.1670    2.2390 hc        1 70X      0.162000
     29 H5          3.0750    2.1530    1.8900 hc        1 70X      0.162000
     30 H6          2.6150    0.1870    4.1430 ha        1 70X      0.185000
     31 H7          2.9840    2.0270    5.7520 hx        1 70X      0.191000
     32 H8          1.8890    6.2070    4.6880 hc        1 70X      0.185000
     33 H9          0.2830    4.2430    4.4050 hc        1 70X      0.106500
     34 H10         0.9780    3.4860    5.9060 hc        1 70X      0.106500
     35 H11         0.3510    5.6220    7.2040 ha        1 70X      0.202000
     36 H12         8.7910    7.0590    8.6020 hc        1 70X      0.145500
     37 H13         8.1010    7.4300    6.9650 hc        1 70X      0.145500
     38 H14         4.7360    3.3040    7.4000 hn        1 70X      0.151000
     39 H16         4.2720    6.5770    8.9340 h1        1 70X      0.155000
     40 H17         4.2360    4.7590    9.1430 h1        1 70X      0.155000
     41 H18         8.3660    4.5570    9.2890 hc        1 70X      0.094000
     42 H19        10.5130    6.3120    6.8170 hc        1 70X      0.097333
     43 H20        10.3320    4.6810    6.0410 hc        1 70X      0.097333
     44 H21         9.4320    6.1140    5.3780 hc        1 70X      0.097333
     45 H22         8.3060    2.5060    8.0030 hc        1 70X      0.085833
     46 H23         9.8420    2.4790    8.9480 hc        1 70X      0.085833
     47 H24         9.8870    2.8760    7.1850 hc        1 70X      0.085833
     48 H25        10.4250    6.0910    9.2070 hc        1 70X      0.085833
     49 H26        11.2960    4.7690    8.3220 hc        1 70X      0.085833
     50 H27        10.6750    4.4850    9.9980 hc        1 70X      0.085833
     51 H28         4.4260    3.7170    5.1950 hn        1 70X      0.270000
     52 H29         7.8920    3.8120    6.0820 hn        1 70X      0.221000
     53 O8          6.2610    7.5480    9.0600 o         1 70X     -0.305000
     54 H222        4.5260    3.2810    3.5790 hn        1 70X      0.270000
     55 C9          4.4760    5.5890    8.4090 c3        1 70X      0.048000
     56 C10         9.1420    4.4720    8.4750 c3        1 70X     -0.131000
     57 C12         9.2980    3.0050    8.1250 c3        1 70X     -0.218500
     58 C13        10.4560    4.9910    9.0250 c3        1 70X     -0.218500
@<TRIPOS>BOND
     1    1    2 1   
     2    1    4 1   
     3    1   25 1   
     4    2    3 1   
     5    3   26 1   
     6    3   27 1   
     7    4    5 1   
     8    5    6 1   
     9    5   28 1   
    10    5   29 1   
    11    6    7 1   
    12    6   30 1   
    13    7   24 1   
    14    7   31 1   
    15    8    9 1   
    16    8   55 1   
    17    9   10 1   
    18   10   11 1   
    19   10   14 1   
    20   10   32 1   
    21   11   12 1   
    22   11   33 1   
    23   11   34 1   
    24   12   13 1   
    25   12   35 1   
    26   14   23 1   
    27   14   24 1   
    28   15   16 1   
    29   15   20 1   
    30   15   52 1   
    31   16   17 1   
    32   16   22 1   
    33   16   56 1   
    34   17   18 1   
    35   17   36 1   
    36   17   37 1   
    37   18   19 1   
    38   18   53 1   
    39   19   20 1   
    40   19   55 1   
    41   20   21 1   
    42   21   38 1   
    43   22   42 1   
    44   22   43 1   
    45   22   44 1   
    46   24   51 1   
    47   24   54 1   
    48   39   55 1   
    49   40   55 1   
    50   41   56 1   
    51   45   57 1   
    52   46   57 1   
    53   47   57 1   
    54   48   58 1   
    55   49   58 1   
    56   50   58 1   
    57   56   57 1   
    58   56   58 1   
@<TRIPOS>SUBSTRUCTURE
     1 70X         1 TEMP              0 ****  ****    0 ROOT
