@<TRIPOS>MOLECULE
70Y
   61    60     1     0     0
SMALL
bcc


@<TRIPOS>ATOM
      1 C25        -1.9330    1.8600   -0.3910 c3        1 70Y     -0.004000
      2 C26        -0.7760    2.4630   -0.9830 c1        1 70Y     -0.175000
      3 C27         0.1770    2.9660   -1.5010 c1        1 70Y     -0.193000
      4 C28         0.2080    2.2920    2.5190 c2        1 70Y     -0.156000
      5 C29        -0.7730    1.8670    1.7860 c1        1 70Y     -0.135000
      6 C24        -1.7580    1.4450    1.0360 c2        1 70Y     -0.103000
      7 C23        -3.0320    0.6920    3.0640 c3        1 70Y      0.009000
      8 C22        -2.8110    0.5020    1.5430 c3        1 70Y     -0.177000
      9 C20        -4.3740   -1.2750    3.6060 c2        1 70Y      0.272000
     10 C4         -7.6470    5.3370    1.4880 c2        1 70Y      0.230000
     11 C2         -6.6660    5.5810   -0.8140 c3        1 70Y     -0.132000
     12 C3         -7.6760    6.0190    0.1660 c1        1 70Y      0.035000
     13 C11        -7.3370    5.1330   -2.1130 c3        1 70Y     -0.192000
     14 C17        -6.7000    1.7540    5.5950 c1        1 70Y     -0.170000
     15 C16        -6.2490    0.6430    5.0310 c2        1 70Y     -0.071000
     16 C15        -5.3010    0.9910    3.9260 c2        1 70Y      0.056000
     17 C14        -5.5930    2.1490    3.2560 c2        1 70Y     -0.218000
     18 N1         -5.6290    4.6620   -0.3510 n3        1 70Y     -0.314000
     19 N5         -6.3890    4.9440    1.9860 n         1 70Y     -0.321000
     20 C6         -5.2910    4.8280    1.0650 c2        1 70Y      0.157000
     21 N7         -4.0640    4.9020    1.4870 n2        1 70Y     -0.257000
     22 C10        -5.5470    9.0060   -0.6550 c2        1 70Y     -0.161000
     23 C13        -6.6380    3.1390    3.7200 c3        1 70Y     -0.065000
     24 C18        -6.7690    3.0230    5.2240 c2        1 70Y     -0.112000
     25 N19        -4.2530    0.1170    3.5810 n         1 70Y     -0.300000
     26 C21        -2.5900   -0.9010    1.2300 c1        1 70Y     -0.048000
     27 O30        -5.3910   -1.8670    3.9910 o         1 70Y     -0.352000
     28 H1         -2.2230    0.9530   -0.9990 hc        1 70Y      0.101500
     29 H2         -2.7960    2.5870   -0.4440 hc        1 70Y      0.101500
     30 H3          1.0220    3.4130   -1.9600 ha        1 70Y      0.225000
     31 H4          0.1400    3.2170    3.1120 ha        1 70Y      0.140500
     32 H5         -7.5180    8.4600   -0.0390 hc        1 70Y      0.090667
     33 H6         -7.4620    9.5690   -1.4740 hc        1 70Y      0.090667
     34 H7         -7.1030   10.2140    0.1820 hc        1 70Y      0.090667
     35 H8          1.1660    1.7540    2.5890 ha        1 70Y      0.140500
     36 H9         -3.0190    1.7970    3.2850 h1        1 70Y      0.107500
     37 H10        -2.1600    0.2180    3.6000 h1        1 70Y      0.107500
     38 H11        -3.7920    0.7400    1.0100 hc        1 70Y      0.159000
     39 H12        -9.7440    5.3200   -0.2350 ha        1 70Y      0.016000
     40 H13        -9.4150    4.7750   -0.4820 ha        1 70Y      0.016000
     41 H14        -6.5790    5.0480   -2.9270 hc        1 70Y      0.097667
     42 H15        -7.8390    4.1440   -1.9810 hc        1 70Y      0.097667
     43 H16        -8.1040    5.8920   -2.4040 hc        1 70Y      0.097667
     44 H17        -6.8100    3.9100    5.8580 ha        1 70Y      0.155000
     45 H18        -6.5620   -0.3930    5.1970 ha        1 70Y      0.193000
     46 H19        -5.0710    2.4260    2.3300 ha        1 70Y      0.128000
     47 H20        -5.5270    8.6890   -2.7670 ha        1 70Y      0.111500
     48 H21        -4.9570    9.0200    0.2770 ha        1 70Y      0.120000
     49 H22        -3.9080    8.4570   -1.9020 ha        1 70Y      0.111500
     50 H23        -5.8620    3.7040   -0.5400 hn        1 70Y      0.179000
     51 H24        -3.3580    4.8130    0.7860 hn        1 70Y      0.176000
     52 H25        -6.9360    5.2710    3.9620 h1        1 70Y      0.119000
     53 H26        -5.1910    4.7750    3.7230 h1        1 70Y      0.119000
     54 H27        -6.1150    6.5710   -1.0400 h1        1 70Y      0.191000
     55 H28        -7.6130    2.8880    3.2090 hc        1 70Y      0.130000
     56 H29        -3.4620   -1.8000    3.2270 h5        1 70Y      0.171000
     57 H30        -1.9450   -1.1190    0.3650 ha        1 70Y      0.055000
     58 C9         -6.2460    4.5880    3.3800 c3        1 70Y     -0.006000
     59 O8         -8.6710    5.1650    2.1710 o         1 70Y     -0.290000
     60 C12        -4.9740    8.7020   -1.8190 c2        1 70Y     -0.241000
     61 C31        -6.9780    9.3330   -0.4950 c3        1 70Y     -0.207000
@<TRIPOS>BOND
     1    1    2 1   
     2    1    6 1   
     3    1   28 1   
     4    1   29 1   
     5    2    3 1   
     6    3   30 1   
     7    4    5 1   
     8    4   31 1   
     9    4   35 1   
    10    5    6 1   
    11    6    8 1   
    12    7    8 1   
    13    7   25 1   
    14    7   36 1   
    15    7   37 1   
    16    8   26 1   
    17    8   38 1   
    18    9   25 1   
    19    9   27 1   
    20    9   56 1   
    21   10   12 1   
    22   10   19 1   
    23   10   59 1   
    24   11   12 1   
    25   11   13 1   
    26   11   18 1   
    27   11   54 1   
    28   13   41 1   
    29   13   42 1   
    30   13   43 1   
    31   14   15 1   
    32   14   24 1   
    33   15   16 1   
    34   15   45 1   
    35   16   17 1   
    36   16   25 1   
    37   17   23 1   
    38   17   46 1   
    39   18   20 1   
    40   18   50 1   
    41   19   20 1   
    42   19   58 1   
    43   20   21 1   
    44   21   51 1   
    45   22   48 1   
    46   22   60 1   
    47   22   61 1   
    48   23   24 1   
    49   23   55 1   
    50   23   58 1   
    51   24   44 1   
    52   26   57 1   
    53   32   61 1   
    54   33   61 1   
    55   34   61 1   
    56   39   40 1   
    57   47   60 1   
    58   49   60 1   
    59   52   58 1   
    60   53   58 1   
@<TRIPOS>SUBSTRUCTURE
     1 70Y         1 TEMP              0 ****  ****    0 ROOT
