@<TRIPOS>MOLECULE
70Y
   61    59     1     0     0
SMALL
bcc


@<TRIPOS>ATOM
      1 C25         1.5440   -1.6930    0.8910 c2        1 70Y     -0.120000
      2 C26         2.5170   -1.0980    1.5640 c1        1 70Y     -0.150000
      3 C27         2.7310    0.1380    1.9980 c2        1 70Y     -0.095000
      4 C28         1.4770    0.9170    1.9430 c2        1 70Y     -0.119000
      5 C29         0.5750    0.5650    1.0010 c2        1 70Y     -0.178000
      6 C24         0.7230   -0.6740    0.1260 c3        1 70Y      0.026000
      7 C23        -3.6630    2.0060    1.0500 c3        1 70Y     -0.081000
      8 C22        -0.6000   -1.2570   -0.2280 c2        1 70Y     -0.445000
      9 C20        -4.7290   -0.1000    1.6530 c2        1 70Y      0.255000
     10 C4         -8.6830    6.6680    3.3720 c2        1 70Y      0.346000
     11 C2         -8.3860    6.1890    0.8900 c2        1 70Y      0.099000
     12 C3         -9.1270    6.3060    2.0210 c2        1 70Y     -0.315000
     13 C11        -9.1230    5.9010   -0.3950 c3        1 70Y     -0.198000
     14 C17        -7.0100    2.2130    4.5350 c2        1 70Y     -0.236000
     15 C16        -6.1590    1.4780    3.7670 c2        1 70Y      0.000000
     16 C15        -5.5940    2.0390    2.5420 c2        1 70Y      0.011000
     17 C14        -5.9750    3.2920    2.1490 c2        1 70Y     -0.164000
     18 N1         -7.0140    6.3320    0.7540 n7        1 70Y     -0.368000
     19 N5         -7.3750    6.4330    3.7930 ns        1 70Y     -0.339000
     20 C6         -6.0380    6.1600    1.7470 c2        1 70Y      0.115000
     21 N7         -4.7780    6.4510    1.6130 n2        1 70Y     -0.322000
     22 C10        -6.2480    8.8950   -1.8380 c2        1 70Y     -0.281000
     23 C13        -6.9420    4.0930    2.9350 c3        1 70Y     -0.172000
     24 C18        -7.3500    3.5550    4.2360 c1        1 70Y     -0.084000
     25 N19        -4.6460    1.2800    1.8100 n         1 70Y     -0.303000
     26 C21        -1.7720   -0.7820    0.1160 c1        1 70Y      0.158000
     27 O30        -5.6120   -0.8000    2.1710 o         1 70Y     -0.359000
     28 H1          1.2330   -0.3530   -0.8300 hc        1 70Y      0.125000
     29 H2          1.2310   -2.7370    0.9420 ha        1 70Y      0.160000
     30 H3          3.6780    0.6180    2.2490 ha        1 70Y      0.163000
     31 H4         -0.3090    1.1840    0.7880 ha        1 70Y      0.135000
     32 H5         -6.3790   10.7390   -0.7450 ha        1 70Y      0.135000
     33 H6         -6.6550    9.1870    0.2530 ha        1 70Y      0.135000
     34 H7         -6.0220    9.4000   -2.7970 ha        1 70Y      0.110000
     35 H8          1.3700    1.8010    2.5830 ha        1 70Y      0.148000
     36 H9         -3.3060    2.8940    1.6380 h1        1 70Y      0.086000
     37 H10        -4.0960    2.3700    0.0780 h1        1 70Y      0.086000
     38 H11        -0.5450   -2.1780   -0.8450 ha        1 70Y      0.200000
     39 H12        -9.9440    3.8690    1.2460 ha        1 70Y      0.005250
     40 H13       -10.0620    3.2060    1.3300 ha        1 70Y      0.005250
     41 H14        -8.7390    6.5320   -1.2360 hc        1 70Y      0.093000
     42 H15        -8.9850    4.8250   -0.6680 hc        1 70Y      0.093000
     43 H16       -10.2140    6.1000   -0.2710 hc        1 70Y      0.093000
     44 H17        -7.4310    1.7820    5.4590 ha        1 70Y      0.153000
     45 H18        -5.8700    0.4500    4.0510 ha        1 70Y      0.162000
     46 H19        -5.5940    3.7500    1.2230 ha        1 70Y      0.141000
     47 H20        -6.3590    6.9310   -2.7200 ha        1 70Y      0.066000
     48 H21        -4.0620    7.2070   -1.7180 ha        1 70Y      0.005250
     49 H22        -4.2340    6.5960   -1.4730 ha        1 70Y      0.005250
     50 H23        -6.6960    6.6480   -0.1800 hn        1 70Y      0.293000
     51 H24        -4.4950    6.8450    0.7400 hn        1 70Y      0.137000
     52 H25        -7.2450    6.4730    4.7840 hn        1 70Y      0.237000
     53 H26        -5.5320    5.5060    3.7640 h1        1 70Y      0.135000
     54 H27       -10.2200    6.1700    1.9630 ha        1 70Y      0.161000
     55 H28        -7.9260    4.1050    2.3450 hc        1 70Y      0.184000
     56 H29        -3.9030   -0.5240    1.0270 h5        1 70Y      0.164000
     57 H30        -2.7860    1.3390    0.8230 h1        1 70Y      0.086000
     58 C9         -6.4630    5.5600    3.1160 c3        1 70Y      0.111000
     59 O8         -9.4610    7.2380    4.1670 o         1 70Y     -0.369000
     60 C12        -6.3590    7.4870   -1.7730 c1        1 70Y     -0.127000
     61 C31        -6.4300    9.6400   -0.7270 c2        1 70Y      0.002000
@<TRIPOS>BOND
     1    1    2 1   
     2    1    6 1   
     3    1   29 1   
     4    2    3 1   
     5    3    4 1   
     6    3   30 1   
     7    4    5 1   
     8    4   35 1   
     9    5    6 1   
    10    5   31 1   
    11    6    8 1   
    12    6   28 1   
    13    7   25 1   
    14    7   36 1   
    15    7   37 1   
    16    7   57 1   
    17    8   26 1   
    18    8   38 1   
    19    9   25 1   
    20    9   27 1   
    21    9   56 1   
    22   10   12 1   
    23   10   19 1   
    24   10   59 1   
    25   11   12 1   
    26   11   13 1   
    27   11   18 1   
    28   12   54 1   
    29   13   41 1   
    30   13   42 1   
    31   13   43 1   
    32   14   15 1   
    33   14   24 1   
    34   14   44 1   
    35   15   16 1   
    36   15   45 1   
    37   16   17 1   
    38   16   25 1   
    39   17   23 1   
    40   17   46 1   
    41   18   20 1   
    42   18   50 1   
    43   19   52 1   
    44   19   58 1   
    45   20   21 1   
    46   20   58 1   
    47   21   51 1   
    48   22   34 1   
    49   22   60 1   
    50   22   61 1   
    51   23   24 1   
    52   23   55 1   
    53   23   58 1   
    54   32   61 1   
    55   33   61 1   
    56   39   40 1   
    57   47   60 1   
    58   48   49 1   
    59   53   58 1   
@<TRIPOS>SUBSTRUCTURE
     1 70Y         1 TEMP              0 ****  ****    0 ROOT
