@<TRIPOS>MOLECULE
710
   57    62     1     0     0
SMALL
bcc


@<TRIPOS>ATOM
      1 C          -4.0580    0.8720   -0.3030 ca        1 710     -0.147000
      2 C1         -5.0690   -0.1190   -0.2790 ca        1 710     -0.085500
      3 C2         -4.7530   -1.4730   -0.3690 ca        1 710     -0.108000
      4 C3         -2.7160    0.5420   -0.3980 ca        1 710     -0.068000
      5 C4         -2.3580   -0.8030   -0.4690 ca        1 710     -0.194900
      6 C5         -3.3960   -1.8100   -0.4670 ca        1 710     -0.053200
      7 N          -2.7370   -3.0440   -0.5770 na        1 710     -0.013100
      8 N6         -1.4140   -2.9020   -0.6490 nc        1 710     -0.485100
      9 C7         -1.1200   -1.5730   -0.5830 cd        1 710      0.404200
     10 C8          0.2250   -1.0530   -0.6300 cd        1 710     -0.090700
     11 N9          0.5660    0.2000   -0.0790 na        1 710     -0.185400
     12 C10         1.3510   -1.6400   -1.2130 cc        1 710     -0.137200
     13 C11         2.4620   -0.7450   -0.9900 ca        1 710     -0.106800
     14 C12         1.9390    0.3840   -0.2520 ca        1 710     -0.034200
     15 C13         2.7790    1.4420    0.1340 ca        1 710     -0.155000
     16 C14         4.1150    1.3690   -0.2210 ca        1 710     -0.085000
     17 C15         4.6350    0.2750   -0.9460 ca        1 710     -0.116300
     18 C16         3.8150   -0.7800   -1.3300 ca        1 710     -0.075000
     19 C17         6.0800    0.2790   -1.3530 c3        1 710      0.219100
     20 N18         7.0120    0.4930   -0.2510 n3        1 710     -0.728600
     21 C19         8.3710    0.6940   -0.7380 c3        1 710      0.167800
     22 C20         9.3820    0.9260    0.3840 c3        1 710     -0.076900
     23 C21         9.3160   -0.1770    1.4180 c3        1 710     -0.078400
     24 C22         7.8990   -0.3420    1.9230 c3        1 710     -0.076900
     25 C23         6.9240   -0.5480    0.7650 c3        1 710      0.167800
     26 C24        -6.4580    0.2890   -0.1680 cc        1 710      0.266500
     27 C25        -7.0140    1.3760    0.6510 cc        1 710      0.185300
     28 N26        -8.3610    1.3850    0.4390 nd        1 710     -0.494800
     29 N27        -8.5850    0.3910   -0.4240 na        1 710      0.149900
     30 N28        -7.5120   -0.2930   -0.8210 nd        1 710     -0.481800
     31 C29        -6.2580    2.2890    1.5470 c3        1 710      0.111100
     32 O          -6.9390    2.6110    2.7390 oh        1 710     -0.584800
     33 H          -4.3560    1.9320   -0.2610 ha        1 710      0.138000
     34 H2         -5.5330   -2.2460   -0.3660 ha        1 710      0.154000
     35 H3         -1.9530    1.3330   -0.4370 ha        1 710      0.141000
     36 HN         -3.1520   -3.9430   -0.6310 hn        1 710      0.331700
     37 HN9         0.0010    0.7010    0.5540 hn        1 710      0.296700
     38 H10         1.3860   -2.5900   -1.7380 ha        1 710      0.165000
     39 H13         2.3880    2.2990    0.6970 ha        1 710      0.133000
     40 H14         4.7990    2.1820    0.0710 ha        1 710      0.146000
     41 H16         4.2150   -1.6340   -1.8950 ha        1 710      0.135000
     42 H171        6.3100   -0.6840   -1.9040 h1        1 710      0.035700
     43 H172        6.2280    1.1270   -2.0850 h1        1 710      0.035700
     44 H191        8.7220   -0.1850   -1.3570 h1        1 710      0.031200
     45 H192        8.3620    1.5990   -1.4080 h1        1 710      0.031200
     46 H201       10.4060    0.9710   -0.0680 hc        1 710      0.045950
     47 H202        9.1810    1.9140    0.8740 hc        1 710      0.045950
     48 H211        9.6680   -1.1400    0.9640 hc        1 710      0.039200
     49 H212       10.0000    0.0620    2.2730 hc        1 710      0.039200
     50 H221        7.8320   -1.2290    2.6030 hc        1 710      0.045950
     51 H222        7.6010    0.5650    2.5120 hc        1 710      0.045950
     52 H231        5.8710   -0.5350    1.1650 h1        1 710      0.031200
     53 H232        7.1100   -1.5710    0.3230 h1        1 710      0.031200
     54 H27        -9.5050    0.1750   -0.7570 hn        1 710      0.353700
     55 H291       -6.0000    3.2280    0.9790 h1        1 710      0.063700
     56 H292       -5.3120    1.7820    1.8890 h1        1 710      0.063700
     57 HO         -7.7660    3.0500    2.5020 ho        1 710      0.411000
@<TRIPOS>BOND
     1    1    2 ar  
     2    1    4 ar  
     3    1   33 1   
     4    2    3 ar  
     5    2   26 1   
     6    3    6 ar  
     7    3   34 1   
     8    4    5 ar  
     9    4   35 1   
    10    5    6 ar  
    11    5    9 1   
    12    6    7 1   
    13    7    8 1   
    14    7   36 1   
    15    8    9 2   
    16    9   10 1   
    17   10   11 1   
    18   10   12 2   
    19   11   14 1   
    20   11   37 1   
    21   12   13 1   
    22   12   38 1   
    23   13   14 ar  
    24   13   18 ar  
    25   14   15 ar  
    26   15   16 ar  
    27   15   39 1   
    28   16   17 ar  
    29   16   40 1   
    30   17   18 ar  
    31   17   19 1   
    32   18   41 1   
    33   19   20 1   
    34   19   42 1   
    35   19   43 1   
    36   20   21 1   
    37   20   25 1   
    38   21   22 1   
    39   21   44 1   
    40   21   45 1   
    41   22   23 1   
    42   22   46 1   
    43   22   47 1   
    44   23   24 1   
    45   23   48 1   
    46   23   49 1   
    47   24   25 1   
    48   24   50 1   
    49   24   51 1   
    50   25   52 1   
    51   25   53 1   
    52   26   27 1   
    53   26   30 2   
    54   27   28 2   
    55   27   31 1   
    56   28   29 1   
    57   29   30 1   
    58   29   54 1   
    59   31   32 1   
    60   31   55 1   
    61   31   56 1   
    62   32   57 1   
@<TRIPOS>SUBSTRUCTURE
     1 710         1 TEMP              0 ****  ****    0 ROOT
