@<TRIPOS>MOLECULE
710
   57    62     1     0     0
SMALL
bcc


@<TRIPOS>ATOM
      1 C          -0.0440   -0.2530   -0.1290 ca        1 710     -0.147000
      2 C1          1.3490   -0.0470   -0.2720 ca        1 710     -0.085500
      3 C2          2.1240    0.4050    0.7940 ca        1 710     -0.108000
      4 C3         -0.6930   -0.0320    1.0750 ca        1 710     -0.068000
      5 C4          0.0520    0.4000    2.1720 ca        1 710     -0.194900
      6 C5          1.4700    0.6300    2.0130 ca        1 710     -0.053200
      7 N           1.9300    1.0810    3.2590 na        1 710     -0.013100
      8 N6          0.9500    1.1540    4.1600 nc        1 710     -0.485100
      9 C7         -0.2090    0.7510    3.5670 cd        1 710      0.404200
     10 C8         -1.4770    0.7030    4.2530 cd        1 710     -0.090700
     11 N9         -2.5240   -0.1480    3.8380 na        1 710     -0.185400
     12 C10        -1.8850    1.4560    5.3570 cc        1 710     -0.137200
     13 C11        -3.2280    1.0410    5.6830 ca        1 710     -0.106800
     14 C12        -3.5860    0.0140    4.7300 ca        1 710     -0.034200
     15 C13        -4.8430   -0.6100    4.7820 ca        1 710     -0.155000
     16 C14        -5.7250   -0.2050    5.7700 ca        1 710     -0.085000
     17 C15        -5.3890    0.8000    6.7030 ca        1 710     -0.116300
     18 C16        -4.1460    1.4220    6.6630 ca        1 710     -0.075000
     19 C17        -6.4070    1.2390    7.7150 c3        1 710      0.219100
     20 N18        -6.9740    0.1500    8.5040 n3        1 710     -0.728600
     21 C19        -8.0970    0.6100    9.3130 c3        1 710      0.167800
     22 C20        -8.7250   -0.4990   10.1540 c3        1 710     -0.076900
     23 C21        -7.6830   -1.2050   10.9950 c3        1 710     -0.078400
     24 C22        -6.5450   -1.6940   10.1240 c3        1 710     -0.076900
     25 C23        -5.9670   -0.5560    9.2870 c3        1 710      0.167800
     26 C24         1.9740   -0.3040   -1.5570 cc        1 710      0.266500
     27 C25         1.6830   -1.3960   -2.4970 cc        1 710      0.185300
     28 N26         2.5160   -1.2350   -3.5640 nd        1 710     -0.494800
     29 N27         3.2400   -0.1490   -3.2820 na        1 710      0.149900
     30 N28         2.9720    0.4460   -2.1190 nd        1 710     -0.481800
     31 C29         0.6780   -2.4760   -2.3200 c3        1 710      0.111100
     32 O           1.1000   -3.7310   -2.8050 oh        1 710     -0.584800
     33 H          -0.6230   -0.5810   -1.0060 ha        1 710      0.138000
     34 H2          3.2030    0.5810    0.6850 ha        1 710      0.154000
     35 H3         -1.7800   -0.1790    1.1540 ha        1 710      0.141000
     36 HN          2.8540    1.3560    3.4950 hn        1 710      0.331700
     37 HN9        -2.4100   -0.9090    3.2230 hn        1 710      0.296700
     38 H10        -1.3020    2.2140    5.8720 ha        1 710      0.165000
     39 H13        -5.1180   -1.3920    4.0620 ha        1 710      0.133000
     40 H14        -6.7170   -0.6790    5.8390 ha        1 710      0.146000
     41 H16        -3.8790    2.2050    7.3880 ha        1 710      0.135000
     42 H171       -5.9480    2.0320    8.3790 h1        1 710      0.035700
     43 H172       -7.2600    1.7240    7.1550 h1        1 710      0.035700
     44 H191       -8.8780    1.0150    8.6090 h1        1 710      0.031200
     45 H192       -7.7910    1.4520   10.0030 h1        1 710      0.031200
     46 H201       -9.5070   -0.0420   10.8120 hc        1 710      0.045950
     47 H202       -9.2310   -1.2410    9.4830 hc        1 710      0.045950
     48 H211       -7.2860   -0.5000   11.7720 hc        1 710      0.039200
     49 H212       -8.1500   -2.0700   11.5330 hc        1 710      0.039200
     50 H221       -5.7260   -2.1160   10.7610 hc        1 710      0.045950
     51 H222       -6.9120   -2.5120    9.4510 hc        1 710      0.045950
     52 H231       -5.2170   -0.9790    8.5600 h1        1 710      0.031200
     53 H232       -5.4150    0.1490    9.9770 h1        1 710      0.031200
     54 H27         3.9380    0.2010   -3.9090 hn        1 710      0.353700
     55 H291       -0.2830   -2.1680   -2.8190 h1        1 710      0.063700
     56 H292        0.4970   -2.6440   -1.2210 h1        1 710      0.063700
     57 HO          1.2740   -3.6440   -3.7510 ho        1 710      0.411000
@<TRIPOS>BOND
     1    1    2 ar  
     2    1    4 ar  
     3    1   33 1   
     4    2    3 ar  
     5    2   26 1   
     6    3    6 ar  
     7    3   34 1   
     8    4    5 ar  
     9    4   35 1   
    10    5    6 ar  
    11    5    9 1   
    12    6    7 1   
    13    7    8 1   
    14    7   36 1   
    15    8    9 2   
    16    9   10 1   
    17   10   11 1   
    18   10   12 2   
    19   11   14 1   
    20   11   37 1   
    21   12   13 1   
    22   12   38 1   
    23   13   14 ar  
    24   13   18 ar  
    25   14   15 ar  
    26   15   16 ar  
    27   15   39 1   
    28   16   17 ar  
    29   16   40 1   
    30   17   18 ar  
    31   17   19 1   
    32   18   41 1   
    33   19   20 1   
    34   19   42 1   
    35   19   43 1   
    36   20   21 1   
    37   20   25 1   
    38   21   22 1   
    39   21   44 1   
    40   21   45 1   
    41   22   23 1   
    42   22   46 1   
    43   22   47 1   
    44   23   24 1   
    45   23   48 1   
    46   23   49 1   
    47   24   25 1   
    48   24   50 1   
    49   24   51 1   
    50   25   52 1   
    51   25   53 1   
    52   26   27 1   
    53   26   30 2   
    54   27   28 2   
    55   27   31 1   
    56   28   29 1   
    57   29   30 1   
    58   29   54 1   
    59   31   32 1   
    60   31   55 1   
    61   31   56 1   
    62   32   57 1   
@<TRIPOS>SUBSTRUCTURE
     1 710         1 TEMP              0 ****  ****    0 ROOT
