@<TRIPOS>MOLECULE
710
   57    48     1     0     0
SMALL
bcc


@<TRIPOS>ATOM
      1 C           3.3130    2.0560   -3.9000 c1        1 710     -0.104000
      2 C1          4.5240    1.4410   -4.1910 c1        1 710      0.016000
      3 C2          4.8510    0.2290   -3.5900 c1        1 710     -0.111000
      4 C3          2.4260    1.4610   -3.0080 c1        1 710     -0.104000
      5 C4          2.7580    0.2300   -2.3960 c1        1 710     -0.057000
      6 C5          3.9490   -0.3760   -2.6820 c1        1 710     -0.057000
      7 N           4.0240   -1.5320   -1.9430 n1        1 710     -0.182000
      8 N6          2.8650   -1.6380   -1.1930 n2        1 710     -0.051000
      9 C7          2.0860   -0.5620   -1.4670 c1        1 710     -0.046000
     10 C8          0.9130   -0.6880   -0.6530 c2        1 710      0.033000
     11 N9         -0.2060   -1.3260   -1.1280 n2        1 710     -0.197000
     12 C10         0.5770   -0.0660    0.5420 c1        1 710     -0.171000
     13 C11        -0.7600   -0.3270    0.7980 c1        1 710     -0.094000
     14 C12        -1.2450   -1.1030   -0.2290 c1        1 710      0.011000
     15 C13        -2.5960   -1.5240   -0.2190 c1        1 710     -0.153000
     16 C14        -3.4330   -1.1530    0.8300 c1        1 710     -0.086000
     17 C15        -2.9430   -0.3690    1.8670 c1        1 710     -0.109000
     18 C16        -1.6080    0.0470    1.8590 c1        1 710     -0.077000
     19 C17        -3.8830    0.0500    3.0120 c3        1 710     -0.024000
     20 N18        -4.4890   -1.1230    3.5910 n3        1 710     -0.254000
     21 C19        -5.9430   -1.0160    3.5000 c3        1 710     -0.069000
     22 C20        -6.6540   -2.1440    4.2190 c3        1 710     -0.155500
     23 C21        -6.1850   -2.3080    5.6030 c3        1 710     -0.157000
     24 C22        -4.7210   -2.4150    5.6870 c3        1 710     -0.155500
     25 C23        -4.0180   -1.2860    4.9640 c3        1 710     -0.069000
     26 C24         5.4640    1.9370   -5.1280 c1        1 710     -0.137000
     27 C25         6.4330    2.8820   -4.8800 c1        1 710     -0.137000
     28 N26         7.0910    3.1090   -6.0240 n2        1 710     -0.055500
     29 N27         6.5460    2.3180   -6.9880 n2        1 710     -0.141000
     30 N28         5.5400    1.5970   -6.4210 n2        1 710     -0.055500
     31 C29         6.6570    3.6090   -3.5580 c2        1 710      0.051000
     32 O           7.2530    4.8710   -3.8090 oh        1 710     -0.321000
     33 H           3.0830    2.9060   -4.3210 ha        1 710      0.155500
     34 H2          5.7040   -0.2040   -3.7940 ha        1 710      0.152000
     35 H3          1.5760    1.8930   -2.8040 ha        1 710      0.155500
     36 HN          4.7160   -2.1250   -1.9460 DU        1 710      0.248500
     37 HN9        -0.2620   -1.8020   -1.9070 DU        1 710      0.248500
     38 H10         1.1850    0.4150    1.1240 DU        1 710      0.248500
     39 H13        -2.9410   -2.0750   -0.9490 ha        1 710      0.134000
     40 H14        -4.3710   -1.4450    0.8360 ha        1 710      0.146000
     41 H16        -1.2650    0.5970    2.5860 ha        1 710      0.133000
     42 H171       -4.5870    0.6430    2.6590 h1        1 710      0.074500
     43 H172       -3.3680    0.5260    3.7020 h1        1 710      0.074500
     44 H191       -6.2020   -1.0290    2.5590 h1        1 710      0.070500
     45 H192       -6.2230   -0.1640    3.8930 h1        1 710      0.070500
     46 H201       -6.4990   -2.9760    3.7330 hc        1 710      0.085250
     47 H202       -7.6140   -1.9570    4.2300 hc        1 710      0.085250
     48 H211       -6.4770   -1.5380    6.1290 hc        1 710      0.077500
     49 H212       -6.5860   -3.1230    5.9810 hc        1 710      0.077500
     50 H221       -4.4430   -3.2650    5.2920 hc        1 710      0.085250
     51 H222       -4.4550   -2.4010    6.6330 hc        1 710      0.085250
     52 H231       -4.1740   -0.4470    5.4550 h1        1 710      0.070500
     53 H232       -3.0620   -1.4690    4.9480 h1        1 710      0.070500
     54 H27         6.8090    2.2780   -7.8600 DU        1 710      0.248500
     55 H291        7.2510    3.0740   -2.9870 h4        1 710      0.107500
     56 H292        5.8010    3.7380   -3.1090 h4        1 710      0.107500
     57 HO          7.8200    5.0700   -3.1460 ho        1 710      0.208000
@<TRIPOS>BOND
     1    1    4 1   
     2    1   33 1   
     3    2    3 1   
     4    3   34 1   
     5    4   35 1   
     6    5    6 1   
     7    7    8 1   
     8    8    9 1   
     9    9   10 1   
    10   10   11 1   
    11   10   12 1   
    12   11   14 1   
    13   12   13 1   
    14   13   18 1   
    15   14   15 1   
    16   15   39 1   
    17   16   17 1   
    18   16   40 1   
    19   17   19 1   
    20   18   41 1   
    21   19   20 1   
    22   19   42 1   
    23   19   43 1   
    24   20   21 1   
    25   20   25 1   
    26   21   22 1   
    27   21   44 1   
    28   21   45 1   
    29   22   23 1   
    30   22   46 1   
    31   22   47 1   
    32   23   24 1   
    33   23   48 1   
    34   23   49 1   
    35   24   25 1   
    36   24   50 1   
    37   24   51 1   
    38   25   52 1   
    39   25   53 1   
    40   26   27 1   
    41   26   30 1   
    42   27   28 1   
    43   28   29 1   
    44   29   30 1   
    45   31   32 1   
    46   31   55 1   
    47   31   56 1   
    48   32   57 1   
@<TRIPOS>SUBSTRUCTURE
     1 710         1 TEMP              0 ****  ****    0 ROOT
