@<TRIPOS>MOLECULE
710
   57    62     1     0     0
SMALL
bcc


@<TRIPOS>ATOM
      1 C          -0.0460   -0.2460   -0.1300 ca        1 710     -0.147000
      2 C1          1.3480   -0.0420   -0.2730 ca        1 710     -0.085500
      3 C2          2.1240    0.4070    0.7940 ca        1 710     -0.108000
      4 C3         -0.6940   -0.0270    1.0750 ca        1 710     -0.068000
      5 C4          0.0520    0.4030    2.1720 ca        1 710     -0.194900
      6 C5          1.4700    0.6320    2.0130 ca        1 710     -0.053200
      7 N           1.9310    1.0800    3.2600 na        1 710     -0.013100
      8 N6          0.9510    1.1530    4.1610 nc        1 710     -0.485100
      9 C7         -0.2080    0.7520    3.5670 cd        1 710      0.404200
     10 C8         -1.4770    0.7040    4.2530 cd        1 710     -0.090700
     11 N9         -2.5240   -0.1440    3.8370 na        1 710     -0.185400
     12 C10        -1.8830    1.4550    5.3600 cc        1 710     -0.137200
     13 C11        -3.2270    1.0410    5.6860 ca        1 710     -0.106800
     14 C12        -3.5860    0.0170    4.7300 ca        1 710     -0.034200
     15 C13        -4.8440   -0.6050    4.7800 ca        1 710     -0.155000
     16 C14        -5.7250   -0.2020    5.7700 ca        1 710     -0.085000
     17 C15        -5.3870    0.7990    6.7060 ca        1 710     -0.116300
     18 C16        -4.1430    1.4200    6.6680 ca        1 710     -0.075000
     19 C17        -6.4040    1.2370    7.7200 c3        1 710      0.219100
     20 N18        -6.9720    0.1460    8.5060 n3        1 710     -0.728600
     21 C19        -8.0940    0.6050    9.3160 c3        1 710      0.167800
     22 C20        -8.7230   -0.5060   10.1550 c3        1 710     -0.076900
     23 C21        -7.6810   -1.2160   10.9930 c3        1 710     -0.078400
     24 C22        -6.5450   -1.7040   10.1200 c3        1 710     -0.076900
     25 C23        -5.9660   -0.5640    9.2850 c3        1 710      0.167800
     26 C24         1.9720   -0.2990   -1.5580 cc        1 710      0.266500
     27 C25         1.6800   -1.3890   -2.4990 cc        1 710      0.185300
     28 N26         2.5130   -1.2290   -3.5660 nd        1 710     -0.494800
     29 N27         3.2390   -0.1440   -3.2820 na        1 710      0.149900
     30 N28         2.9720    0.4500   -2.1190 nd        1 710     -0.481800
     31 C29         0.6730   -2.4680   -2.3230 c3        1 710      0.111100
     32 O           1.0920   -3.7230   -2.8100 oh        1 710     -0.584800
     33 H          -0.6250   -0.5720   -1.0070 ha        1 710      0.138000
     34 H2          3.2030    0.5820    0.6850 ha        1 710      0.154000
     35 H3         -1.7820   -0.1720    1.1530 ha        1 710      0.141000
     36 HN          2.8550    1.3530    3.4970 hn        1 710      0.331700
     37 HN9        -2.4120   -0.9040    3.2190 hn        1 710      0.296700
     38 H10        -1.2980    2.2100    5.8770 ha        1 710      0.165000
     39 H13        -5.1200   -1.3850    4.0590 ha        1 710      0.133000
     40 H14        -6.7180   -0.6750    5.8380 ha        1 710      0.146000
     41 H16        -3.8750    2.2010    7.3940 ha        1 710      0.135000
     42 H171       -7.2570    1.7240    7.1620 h1        1 710      0.035700
     43 H172       -5.9440    2.0270    8.3860 h1        1 710      0.035700
     44 H191       -8.8740    1.0140    8.6150 h1        1 710      0.031200
     45 H192       -7.7870    1.4450   10.0090 h1        1 710      0.031200
     46 H201       -9.5040   -0.0490   10.8150 hc        1 710      0.045950
     47 H202       -9.2310   -1.2440    9.4820 hc        1 710      0.045950
     48 H211       -8.1500   -2.0820   11.5280 hc        1 710      0.039200
     49 H212       -7.2830   -0.5140   11.7720 hc        1 710      0.039200
     50 H221       -5.7260   -2.1290   10.7540 hc        1 710      0.045950
     51 H222       -6.9130   -2.5190    9.4440 hc        1 710      0.045950
     52 H231       -5.2170   -0.9850    8.5570 h1        1 710      0.031200
     53 H232       -5.4120    0.1380    9.9780 h1        1 710      0.031200
     54 H27         3.9370    0.2050   -3.9090 hn        1 710      0.353700
     55 H291        0.4920   -2.6370   -1.2240 h1        1 710      0.063700
     56 H292       -0.2880   -2.1570   -2.8220 h1        1 710      0.063700
     57 HO          1.2660   -3.6350   -3.7560 ho        1 710      0.411000
@<TRIPOS>BOND
     1    1    2 ar  
     2    1    4 ar  
     3    1   33 1   
     4    2    3 ar  
     5    2   26 1   
     6    3    6 ar  
     7    3   34 1   
     8    4    5 ar  
     9    4   35 1   
    10    5    6 ar  
    11    5    9 1   
    12    6    7 1   
    13    7    8 1   
    14    7   36 1   
    15    8    9 2   
    16    9   10 1   
    17   10   11 1   
    18   10   12 2   
    19   11   14 1   
    20   11   37 1   
    21   12   13 1   
    22   12   38 1   
    23   13   14 ar  
    24   13   18 ar  
    25   14   15 ar  
    26   15   16 ar  
    27   15   39 1   
    28   16   17 ar  
    29   16   40 1   
    30   17   18 ar  
    31   17   19 1   
    32   18   41 1   
    33   19   20 1   
    34   19   42 1   
    35   19   43 1   
    36   20   21 1   
    37   20   25 1   
    38   21   22 1   
    39   21   44 1   
    40   21   45 1   
    41   22   23 1   
    42   22   46 1   
    43   22   47 1   
    44   23   24 1   
    45   23   48 1   
    46   23   49 1   
    47   24   25 1   
    48   24   50 1   
    49   24   51 1   
    50   25   52 1   
    51   25   53 1   
    52   26   27 1   
    53   26   30 2   
    54   27   28 2   
    55   27   31 1   
    56   28   29 1   
    57   29   30 1   
    58   29   54 1   
    59   31   32 1   
    60   31   55 1   
    61   31   56 1   
    62   32   57 1   
@<TRIPOS>SUBSTRUCTURE
     1 710         1 TEMP              0 ****  ****    0 ROOT
