@<TRIPOS>MOLECULE
710
   57    62     1     0     0
SMALL
bcc


@<TRIPOS>ATOM
      1 C          -0.0440   -0.2600   -0.1280 ca        1 710     -0.147000
      2 C1          1.3480   -0.0480   -0.2720 ca        1 710     -0.085500
      3 C2          2.1200    0.4160    0.7910 ca        1 710     -0.108000
      4 C3         -0.6940   -0.0360    1.0740 ca        1 710     -0.068000
      5 C4          0.0480    0.4080    2.1680 ca        1 710     -0.194900
      6 C5          1.4660    0.6450    2.0090 ca        1 710     -0.053200
      7 N           1.9220    1.1060    3.2520 na        1 710     -0.013100
      8 N6          0.9420    1.1790    4.1520 nc        1 710     -0.485100
      9 C7         -0.2140    0.7660    3.5610 cd        1 710      0.404200
     10 C8         -1.4830    0.7140    4.2470 cd        1 710     -0.090700
     11 N9         -2.5250   -0.1450    3.8370 na        1 710     -0.185400
     12 C10        -1.8940    1.4690    5.3490 cc        1 710     -0.137200
     13 C11        -3.2350    1.0480    5.6770 ca        1 710     -0.106800
     14 C12        -3.5870    0.0160    4.7280 ca        1 710     -0.034200
     15 C13        -4.8420   -0.6140    4.7830 ca        1 710     -0.155000
     16 C14        -5.7250   -0.2100    5.7690 ca        1 710     -0.085000
     17 C15        -5.3940    0.8000    6.6990 ca        1 710     -0.116300
     18 C16        -4.1540    1.4280    6.6560 ca        1 710     -0.075000
     19 C17        -6.4140    1.2370    7.7100 c3        1 710      0.219100
     20 N18        -6.9750    0.1480    8.5020 n3        1 710     -0.728600
     21 C19        -8.1000    0.6060    9.3100 c3        1 710      0.167800
     22 C20        -8.7230   -0.5040   10.1550 c3        1 710     -0.076900
     23 C21        -7.6770   -1.2030   10.9970 c3        1 710     -0.078400
     24 C22        -6.5390   -1.6890   10.1280 c3        1 710     -0.076900
     25 C23        -5.9660   -0.5510    9.2860 c3        1 710      0.167800
     26 C24         1.9750   -0.3100   -1.5560 cc        1 710      0.266500
     27 C25         1.6900   -1.4090   -2.4880 cc        1 710      0.185300
     28 N26         2.5230   -1.2510   -3.5570 nd        1 710     -0.494800
     29 N27         3.2400   -0.1590   -3.2810 na        1 710      0.149900
     30 N28         2.9700    0.4420   -2.1220 nd        1 710     -0.481800
     31 C29         0.6910   -2.4940   -2.3050 c3        1 710      0.111100
     32 O           1.1190   -3.7490   -2.7820 oh        1 710     -0.584800
     33 H          -0.6210   -0.5960   -1.0040 ha        1 710      0.138000
     34 H2          3.1990    0.5970    0.6810 ha        1 710      0.154000
     35 H3         -1.7800   -0.1880    1.1530 ha        1 710      0.141000
     36 HN          2.8440    1.3870    3.4860 hn        1 710      0.331700
     37 HN9        -2.4070   -0.9080    3.2240 hn        1 710      0.296700
     38 H10        -1.3150    2.2320    5.8610 ha        1 710      0.165000
     39 H13        -5.1130   -1.4000    4.0660 ha        1 710      0.133000
     40 H14        -6.7150   -0.6890    5.8410 ha        1 710      0.146000
     41 H16        -3.8920    2.2160    7.3780 ha        1 710      0.135000
     42 H171       -5.9580    2.0340    8.3720 h1        1 710      0.035700
     43 H172       -7.2690    1.7160    7.1480 h1        1 710      0.035700
     44 H191       -7.7980    1.4510    9.9980 h1        1 710      0.031200
     45 H192       -8.8830    1.0050    8.6060 h1        1 710      0.031200
     46 H201       -9.5070   -0.0480   10.8130 hc        1 710      0.045950
     47 H202       -9.2270   -1.2490    9.4870 hc        1 710      0.045950
     48 H211       -8.1410   -2.0680   11.5380 hc        1 710      0.039200
     49 H212       -7.2830   -0.4940   11.7720 hc        1 710      0.039200
     50 H221       -6.9020   -2.5100    9.4560 hc        1 710      0.045950
     51 H222       -5.7170   -2.1060   10.7640 hc        1 710      0.045950
     52 H231       -5.4160    0.1580    9.9750 h1        1 710      0.031200
     53 H232       -5.2140   -0.9730    8.5600 h1        1 710      0.031200
     54 H27         3.9370    0.1900   -3.9100 hn        1 710      0.353700
     55 H291       -0.2720   -2.1930   -2.8060 h1        1 710      0.063700
     56 H292        0.5100   -2.6550   -1.2040 h1        1 710      0.063700
     57 HO          1.2920   -3.6670   -3.7280 ho        1 710      0.411000
@<TRIPOS>BOND
     1    1    2 ar  
     2    1    4 ar  
     3    1   33 1   
     4    2    3 ar  
     5    2   26 1   
     6    3    6 ar  
     7    3   34 1   
     8    4    5 ar  
     9    4   35 1   
    10    5    6 ar  
    11    5    9 1   
    12    6    7 1   
    13    7    8 1   
    14    7   36 1   
    15    8    9 2   
    16    9   10 1   
    17   10   11 1   
    18   10   12 2   
    19   11   14 1   
    20   11   37 1   
    21   12   13 1   
    22   12   38 1   
    23   13   14 ar  
    24   13   18 ar  
    25   14   15 ar  
    26   15   16 ar  
    27   15   39 1   
    28   16   17 ar  
    29   16   40 1   
    30   17   18 ar  
    31   17   19 1   
    32   18   41 1   
    33   19   20 1   
    34   19   42 1   
    35   19   43 1   
    36   20   21 1   
    37   20   25 1   
    38   21   22 1   
    39   21   44 1   
    40   21   45 1   
    41   22   23 1   
    42   22   46 1   
    43   22   47 1   
    44   23   24 1   
    45   23   48 1   
    46   23   49 1   
    47   24   25 1   
    48   24   50 1   
    49   24   51 1   
    50   25   52 1   
    51   25   53 1   
    52   26   27 1   
    53   26   30 2   
    54   27   28 2   
    55   27   31 1   
    56   28   29 1   
    57   29   30 1   
    58   29   54 1   
    59   31   32 1   
    60   31   55 1   
    61   31   56 1   
    62   32   57 1   
@<TRIPOS>SUBSTRUCTURE
     1 710         1 TEMP              0 ****  ****    0 ROOT
