@<TRIPOS>MOLECULE
711
   65    69     1     0     0
SMALL
bcc


@<TRIPOS>ATOM
      1 N1         -8.4160    0.0230   -1.4490 n2        1 711     -0.832100
      2 C1         -7.8690    1.2010   -1.4080 ce        1 711      0.652800
      3 N2         -8.4440    2.4330   -1.7720 nh        1 711     -0.961800
      4 C2         -6.4870    1.3050   -0.8330 ca        1 711     -0.118900
      5 C3         -5.5050    0.4270   -1.2390 ca        1 711     -0.077000
      6 C4         -4.2040    0.4980   -0.6700 ca        1 711     -0.053000
      7 C5         -3.1830   -0.4120   -1.0530 ca        1 711     -0.080000
      8 C6         -1.9310   -0.3370   -0.4810 ca        1 711     -0.162300
      9 C7         -1.6470    0.6590    0.4890 ca        1 711     -0.126000
     10 C8         -2.6190    1.5480    0.8740 ca        1 711     -0.095000
     11 C9         -3.9240    1.4850    0.3100 ca        1 711     -0.015000
     12 C10        -4.9550    2.3770    0.7070 ca        1 711     -0.126000
     13 C11        -6.2090    2.2870    0.1530 ca        1 711     -0.086000
     14 C12        -0.8480   -1.2770   -0.9100 c3        1 711      0.084600
     15 N21        -0.4000   -2.1850    0.1310 na        1 711     -0.103200
     16 C21        -1.1370   -3.2330    0.6580 cc        1 711      0.322800
     17 C22        -2.4790   -3.6660    0.1880 c3        1 711     -0.160400
     18 N22        -0.4210   -3.8370    1.6700 na        1 711     -0.192300
     19 C23         0.8050   -3.1610    1.8190 ca        1 711     -0.115200
     20 C24         1.8920   -3.3580    2.6870 ca        1 711     -0.060000
     21 C25         2.9660   -2.5010    2.5710 ca        1 711     -0.122000
     22 C26         2.9790   -1.4470    1.6060 ca        1 711      0.193100
     23 C27         1.9110   -1.2330    0.7300 ca        1 711     -0.209000
     24 C28         0.8190   -2.0990    0.8440 ca        1 711     -0.019200
     25 O           4.1200   -0.6980    1.6530 os        1 711     -0.309900
     26 C31         4.2660    0.4060    0.7320 c3        1 711      0.143100
     27 C32         4.6990   -0.1040   -0.6350 c3        1 711     -0.132400
     28 C33         5.1310    1.0660   -1.5270 c3        1 711      0.180300
     29 N31         6.1220    1.9460   -0.9410 nh        1 711     -0.747600
     30 C34         5.7420    2.3930    0.3840 c3        1 711      0.180300
     31 C35         5.3430    1.2860    1.3630 c3        1 711     -0.132400
     32 C36         7.5020    1.5700   -1.1530 c2        1 711      0.592200
     33 N32         8.4230    1.3890   -0.2660 n2        1 711     -0.800100
     34 C37         7.8820    1.4510   -2.6210 c3        1 711     -0.132400
     35 HN1        -9.3390   -0.0330   -1.8230 hn        1 711      0.395400
     36 HN21       -7.8140    3.1770   -1.9510 hn        1 711      0.409800
     37 HN2A       -9.2440    2.4080   -2.3600 hn        1 711      0.409800
     38 H3         -5.7160   -0.3460   -1.9950 ha        1 711      0.156000
     39 H5         -3.4150   -1.1650   -1.8230 ha        1 711      0.137000
     40 H7         -0.6370    0.7120    0.9230 ha        1 711      0.133000
     41 H8         -2.4060    2.3250    1.6260 ha        1 711      0.151000
     42 H10        -4.7330    3.1370    1.4730 ha        1 711      0.149000
     43 H11        -7.0120    2.9680    0.4820 ha        1 711      0.161000
     44 H121        0.0560   -0.6840   -1.2380 h1        1 711      0.090700
     45 H122       -1.1980   -1.9080   -1.7790 h1        1 711      0.090700
     46 H221       -3.1280   -2.7670    0.0100 hc        1 711      0.103367
     47 H222       -2.3700   -4.2300   -0.7760 hc        1 711      0.103367
     48 H223       -2.9770   -4.3280    0.9400 hc        1 711      0.103367
     49 HN22       -0.7230   -4.6180    2.2040 hn        1 711      0.349700
     50 H24         1.8870   -4.1680    3.4320 ha        1 711      0.171000
     51 H25         3.8460   -2.6110    3.2280 ha        1 711      0.185000
     52 H27         1.9210   -0.4280   -0.0170 ha        1 711      0.169000
     53 H31         3.2990    0.9750    0.6650 h1        1 711      0.052700
     54 H321        5.5450   -0.8290   -0.5080 hc        1 711      0.066450
     55 H322        3.8570   -0.6490   -1.1310 hc        1 711      0.066450
     56 H331        4.2240    1.6990   -1.7520 h1        1 711      0.065200
     57 H332        5.5140    0.6550   -2.5010 h1        1 711      0.065200
     58 H341        6.5690    3.0060    0.8380 h1        1 711      0.065200
     59 H342        4.8580    3.0810    0.2470 h1        1 711      0.065200
     60 H351        6.2260    0.6530    1.6370 hc        1 711      0.066450
     61 H352        4.9500    1.7460    2.3050 hc        1 711      0.066450
     62 HN32        8.1670    1.4650    0.6950 hn        1 711      0.386400
     63 H371        7.6760    0.4110   -2.9720 hc        1 711      0.062367
     64 H372        7.3020    2.1750   -3.2430 hc        1 711      0.062367
     65 H373        8.9720    1.6620   -2.7580 hc        1 711      0.062367
@<TRIPOS>BOND
     1    1    2 2   
     2    1   35 1   
     3    2    3 1   
     4    2    4 1   
     5    3   36 1   
     6    3   37 1   
     7    4    5 ar  
     8    4   13 ar  
     9    5    6 ar  
    10    5   38 1   
    11    6    7 ar  
    12    6   11 ar  
    13    7    8 ar  
    14    7   39 1   
    15    8    9 ar  
    16    8   14 1   
    17    9   10 ar  
    18    9   40 1   
    19   10   11 ar  
    20   10   41 1   
    21   11   12 ar  
    22   12   13 ar  
    23   12   42 1   
    24   13   43 1   
    25   14   15 1   
    26   14   44 1   
    27   14   45 1   
    28   15   16 2   
    29   15   24 1   
    30   16   17 1   
    31   16   18 1   
    32   17   46 1   
    33   17   47 1   
    34   17   48 1   
    35   18   19 1   
    36   18   49 1   
    37   19   20 ar  
    38   19   24 ar  
    39   20   21 ar  
    40   20   50 1   
    41   21   22 ar  
    42   21   51 1   
    43   22   23 ar  
    44   22   25 1   
    45   23   24 ar  
    46   23   52 1   
    47   25   26 1   
    48   26   27 1   
    49   26   31 1   
    50   26   53 1   
    51   27   28 1   
    52   27   54 1   
    53   27   55 1   
    54   28   29 1   
    55   28   56 1   
    56   28   57 1   
    57   29   30 1   
    58   29   32 1   
    59   30   31 1   
    60   30   58 1   
    61   30   59 1   
    62   31   60 1   
    63   31   61 1   
    64   32   33 2   
    65   32   34 1   
    66   33   62 1   
    67   34   63 1   
    68   34   64 1   
    69   34   65 1   
@<TRIPOS>SUBSTRUCTURE
     1 711         1 TEMP              0 ****  ****    0 ROOT
