@<TRIPOS>MOLECULE
711
   66    70     1     0     0
SMALL
bcc


@<TRIPOS>ATOM
      1 N1          0.6120    1.2700   -0.0570 n2        1 711     -0.670100
      2 C1          1.6810    1.6040   -0.6450 ce        1 711      0.624800
      3 N2          2.5550    2.8060   -0.2760 n4        1 711     -0.886600
      4 C2          2.2560    0.8740   -1.8030 ca        1 711     -0.204900
      5 C3          1.4740    0.6430   -2.9160 ca        1 711     -0.026000
      6 C4          1.9990   -0.0980   -4.0110 ca        1 711     -0.054000
      7 C5          1.2150   -0.3620   -5.1680 ca        1 711     -0.084000
      8 C6          1.7470   -1.0730   -6.2220 ca        1 711     -0.123300
      9 C7          3.0810   -1.5530   -6.1570 ca        1 711     -0.097000
     10 C8          3.8520   -1.3230   -5.0430 ca        1 711     -0.099000
     11 C9          3.3270   -0.5910   -3.9430 ca        1 711     -0.002000
     12 C10         4.1010   -0.3510   -2.7720 ca        1 711     -0.079000
     13 C11         3.5790    0.3610   -1.7210 ca        1 711     -0.127000
     14 C12         0.9390   -1.2790   -7.4720 c3        1 711      0.078600
     15 N21         0.8590   -2.6450   -7.9370 na        1 711     -0.115200
     16 C21        -0.0440   -3.6020   -7.4930 cc        1 711      0.313800
     17 C22        -1.1120   -3.3750   -6.4840 c3        1 711     -0.156400
     18 N22         0.1800   -4.7870   -8.1550 na        1 711     -0.175300
     19 C23         1.2510   -4.6090   -9.0520 ca        1 711     -0.117200
     20 C24         1.8730   -5.4800   -9.9630 ca        1 711     -0.053000
     21 C25         2.9110   -4.9790  -10.7180 ca        1 711     -0.118000
     22 C26         3.3460   -3.6220  -10.5860 ca        1 711      0.207100
     23 C27         2.7440   -2.7380   -9.6830 ca        1 711     -0.224000
     24 C28         1.6920   -3.2430   -8.9140 ca        1 711     -0.020200
     25 O           4.3940   -3.3200  -11.4010 os        1 711     -0.303900
     26 C31         4.8790   -1.9570  -11.4470 c3        1 711      0.144100
     27 C32         3.9450   -1.0910  -12.2790 c3        1 711     -0.133400
     28 C33         4.5960    0.2680  -12.5640 c3        1 711      0.182800
     29 N31         5.9260    0.2020  -13.1340 nh        1 711     -0.750600
     30 C34         6.8050   -0.6700  -12.3830 c3        1 711      0.182800
     31 C35         6.2570   -2.0710  -12.0950 c3        1 711     -0.133400
     32 C36         5.9880    0.1400  -14.5790 c2        1 711      0.591200
     33 N32         6.5720   -0.7500  -15.3100 n2        1 711     -0.791100
     34 C37         5.3250    1.3220  -15.2670 c3        1 711     -0.132400
     35 HN1         0.2130    1.7560    0.7170 hn        1 711      0.472400
     36 HN21        3.5260    2.4910   -0.1680 hn        1 711      0.462800
     37 HN2A        2.5190    3.4860   -1.0420 hn        1 711      0.462800
     38 H3          0.4370    1.0140   -2.9740 ha        1 711      0.160000
     39 H5          0.1830    0.0230   -5.2030 ha        1 711      0.148000
     40 H7          3.4950   -2.1090   -7.0140 ha        1 711      0.154000
     41 H8          4.8870   -1.6980   -4.9870 ha        1 711      0.166000
     42 H10         5.1250   -0.7580   -2.7190 ha        1 711      0.170000
     43 H11         4.1730    0.4940   -0.8040 ha        1 711      0.142000
     44 H121       -0.1180   -0.9090   -7.3140 h1        1 711      0.098200
     45 H122        1.4070   -0.6730   -8.3060 h1        1 711      0.098200
     46 H221       -1.5070   -4.3450   -6.0890 hc        1 711      0.101367
     47 H222       -1.9570   -2.8100   -6.9590 hc        1 711      0.101367
     48 H223       -0.7110   -2.7760   -5.6260 hc        1 711      0.101367
     49 HN22       -0.3430   -5.6250   -8.0350 hn        1 711      0.355700
     50 H24         1.5390   -6.5240  -10.0730 ha        1 711      0.179000
     51 H25         3.4340   -5.6190  -11.4520 ha        1 711      0.193000
     52 H27         3.0680   -1.6930   -9.5880 ha        1 711      0.166000
     53 H31         4.9790   -1.5600  -10.4010 h1        1 711      0.045700
     54 H321        3.7110   -1.6170  -13.2410 hc        1 711      0.067950
     55 H322        2.9800   -0.9280  -11.7370 hc        1 711      0.067950
     56 H331        4.6830    0.8320  -11.5910 h1        1 711      0.064450
     57 H332        3.9190    0.8560  -13.2440 h1        1 711      0.064450
     58 H341        6.9990   -0.1560  -11.3970 h1        1 711      0.064450
     59 H342        7.7970   -0.7640  -12.9070 h1        1 711      0.064450
     60 H351        6.1770   -2.6720  -13.0380 hc        1 711      0.067950
     61 H352        6.9570   -2.6100  -11.4070 hc        1 711      0.067950
     62 HN32        7.0060   -1.5230  -14.8540 hn        1 711      0.387400
     63 H371        5.8060    1.5110  -16.2600 hc        1 711      0.064367
     64 H372        4.2450    1.0920  -15.4360 hc        1 711      0.064367
     65 H373        5.4170    2.2470  -14.6490 hc        1 711      0.064367
     66 H23         2.2560    3.2620    0.5900 hn        1 711      0.462800
@<TRIPOS>BOND
     1    1    2 2   
     2    1   35 1   
     3    2    3 1   
     4    2    4 1   
     5    3   36 1   
     6    3   37 1   
     7    3   66 1   
     8    4    5 ar  
     9    4   13 ar  
    10    5    6 ar  
    11    5   38 1   
    12    6    7 ar  
    13    6   11 ar  
    14    7    8 ar  
    15    7   39 1   
    16    8    9 ar  
    17    8   14 1   
    18    9   10 ar  
    19    9   40 1   
    20   10   11 ar  
    21   10   41 1   
    22   11   12 ar  
    23   12   13 ar  
    24   12   42 1   
    25   13   43 1   
    26   14   15 1   
    27   14   44 1   
    28   14   45 1   
    29   15   16 2   
    30   15   24 1   
    31   16   17 1   
    32   16   18 1   
    33   17   46 1   
    34   17   47 1   
    35   17   48 1   
    36   18   19 1   
    37   18   49 1   
    38   19   20 ar  
    39   19   24 ar  
    40   20   21 ar  
    41   20   50 1   
    42   21   22 ar  
    43   21   51 1   
    44   22   23 ar  
    45   22   25 1   
    46   23   24 ar  
    47   23   52 1   
    48   25   26 1   
    49   26   27 1   
    50   26   31 1   
    51   26   53 1   
    52   27   28 1   
    53   27   54 1   
    54   27   55 1   
    55   28   29 1   
    56   28   56 1   
    57   28   57 1   
    58   29   30 1   
    59   29   32 1   
    60   30   31 1   
    61   30   58 1   
    62   30   59 1   
    63   31   60 1   
    64   31   61 1   
    65   32   33 2   
    66   32   34 1   
    67   33   62 1   
    68   34   63 1   
    69   34   64 1   
    70   34   65 1   
@<TRIPOS>SUBSTRUCTURE
     1 711         1 TEMP              0 ****  ****    0 ROOT
