@<TRIPOS>MOLECULE
711
   65    58     1     0     0
SMALL
bcc


@<TRIPOS>ATOM
      1 N1         -2.6050    3.0830    8.8440 n1        1 711     -0.301000
      2 C1         -1.6050    3.7170    8.0900 c1        1 711      0.129000
      3 N2         -1.3140    5.1470    8.3050 n2        1 711     -0.400000
      4 C2         -0.8280    2.9360    7.0610 c2        1 711     -0.036000
      5 C3         -1.4320    2.6230    5.8430 c1        1 711     -0.078000
      6 C4         -0.6890    1.9530    4.8300 c1        1 711     -0.054000
      7 C5         -1.3160    1.5880    3.6170 c2        1 711     -0.081000
      8 C6         -0.5890    0.8680    2.6240 c1        1 711     -0.153000
      9 C7          0.7380    0.5240    2.8460 c1        1 711     -0.111000
     10 C8          1.3550    0.8810    4.0370 c1        1 711     -0.111000
     11 C9          0.6070    1.6180    5.0520 c1        1 711     -0.015000
     12 C10         1.2150    1.9390    6.2940 c2        1 711     -0.126000
     13 C11         0.4780    2.6000    7.2870 c2        1 711     -0.087000
     14 C12        -1.2410    0.8390    1.2650 c3        1 711      0.017000
     15 N21        -1.3200   -0.5280    0.7950 n3        1 711     -0.116000
     16 C21        -2.1930   -1.4290    1.3460 c1        1 711      0.165000
     17 C22        -3.5130   -1.5080    2.1730 c2        1 711     -0.204000
     18 N22        -1.9160   -2.6720    0.8130 n2        1 711     -0.155000
     19 C23        -0.8880   -2.5360   -0.0520 c1        1 711     -0.073000
     20 C24        -0.1950   -3.4680   -0.8580 c1        1 711     -0.111000
     21 C25         0.8650   -3.0390   -1.6640 c1        1 711     -0.111000
     22 C26         1.2380   -1.6860   -1.6730 c1        1 711      0.144000
     23 C27         0.5550   -0.7700   -0.8800 c1        1 711     -0.154000
     24 C28        -0.5140   -1.1980   -0.0650 c1        1 711      0.022000
     25 O           1.7250   -1.2810   -2.9040 os        1 711     -0.199000
     26 C31         0.6900   -1.4910   -3.9280 c3        1 711      0.033000
     27 C32         1.1770   -2.4770   -4.8900 c3        1 711     -0.208500
     28 C33         2.3420   -1.9370   -5.7450 c3        1 711     -0.056500
     29 N31         2.0260   -0.6670   -6.3590 n3        1 711     -0.277000
     30 C34         1.5350    0.3180   -5.4020 c3        1 711     -0.056500
     31 C35         0.3800   -0.2170   -4.5520 c3        1 711     -0.208500
     32 C36         1.6020   -0.6070   -7.7830 c2        1 711      0.076000
     33 N32         0.2920   -0.4030   -8.1000 n1        1 711     -0.273000
     34 C37         2.6290   -0.7820   -8.8830 c3        1 711     -0.175000
     35 HN1        -3.0400    3.5190    9.4200 DU        1 711      0.196667
     36 HN21       -0.6410    5.5500    7.8350 hn        1 711      0.205000
     37 HN2A       -1.8750    5.6620    8.8500 hn        1 711      0.205000
     38 H3         -2.2920    2.9360    5.6570 ha        1 711      0.155000
     39 H5         -2.2270    1.8230    3.4640 ha        1 711      0.135000
     40 H7          1.2750   -0.0060    2.1130 ha        1 711      0.156500
     41 H8          2.3250    0.6300    4.2020 ha        1 711      0.156500
     42 H10         2.1360    1.7030    6.4550 ha        1 711      0.149000
     43 H11         0.9010    2.8680    8.0910 ha        1 711      0.161000
     44 H121       -0.7050    1.3770    0.6300 h1        1 711      0.132500
     45 H122       -2.1000    1.1960    1.3260 h1        1 711      0.132500
     46 H221       -3.3300   -1.9120    3.0430 ha        1 711      0.143333
     47 H222       -3.8850   -0.5800    2.3070 ha        1 711      0.143333
     48 H223       -4.2020   -2.0830    1.6690 ha        1 711      0.143333
     49 HN22       -2.3630   -3.4690    1.0150 DU        1 711      0.196667
     50 H24        -0.4500   -4.3960   -0.8500 ha        1 711      0.156500
     51 H25         1.3720   -3.7170   -2.2560 ha        1 711      0.156500
     52 H27         0.8100    0.1500   -0.8880 ha        1 711      0.181000
     53 H31        -0.1010   -1.8300   -3.5090 h1        1 711      0.095000
     54 H321        0.4540   -2.7230   -5.4720 hc        1 711      0.106000
     55 H322        1.4820   -3.2830   -4.3980 hc        1 711      0.106000
     56 H331        2.5500   -2.5980   -6.4600 h1        1 711      0.105500
     57 H332        3.1390   -1.8250   -5.1700 h1        1 711      0.105500
     58 H341        2.2590    0.5790   -4.8200 h1        1 711      0.105500
     59 H342        1.2090    1.1430   -5.9170 h1        1 711      0.105500
     60 H351        0.1610    0.4820   -3.7990 hc        1 711      0.106000
     61 H352       -0.4050   -0.3270   -5.1170 hc        1 711      0.106000
     62 HN32       -0.3040   -0.3040   -7.4630 DU        1 711      0.196667
     63 H371        3.3040   -0.1140   -8.7950 hc        1 711      0.101333
     64 H372        2.2040   -0.6910   -9.7380 hc        1 711      0.101333
     65 H373        3.0490   -1.6970   -8.8110 hc        1 711      0.101333
@<TRIPOS>BOND
     1    1    2 1   
     2    2    4 1   
     3    3   36 1   
     4    3   37 1   
     5    4    5 1   
     6    4   13 1   
     7    5   38 1   
     8    6    7 1   
     9    6   11 1   
    10    7    8 1   
    11    7   39 1   
    12    8   14 1   
    13    9   10 1   
    14    9   40 1   
    15   10   41 1   
    16   11   12 1   
    17   12   13 1   
    18   12   42 1   
    19   13   43 1   
    20   14   15 1   
    21   14   44 1   
    22   14   45 1   
    23   15   16 1   
    24   15   24 1   
    25   16   18 1   
    26   17   46 1   
    27   17   47 1   
    28   17   48 1   
    29   18   19 1   
    30   19   24 1   
    31   20   21 1   
    32   20   50 1   
    33   21   51 1   
    34   22   23 1   
    35   22   25 1   
    36   23   52 1   
    37   25   26 1   
    38   26   27 1   
    39   26   31 1   
    40   26   53 1   
    41   27   28 1   
    42   27   54 1   
    43   27   55 1   
    44   28   29 1   
    45   28   56 1   
    46   28   57 1   
    47   29   30 1   
    48   29   32 1   
    49   30   31 1   
    50   30   58 1   
    51   30   59 1   
    52   31   60 1   
    53   31   61 1   
    54   32   33 1   
    55   32   34 1   
    56   34   63 1   
    57   34   64 1   
    58   34   65 1   
@<TRIPOS>SUBSTRUCTURE
     1 711         1 TEMP              0 ****  ****    0 ROOT
