@<TRIPOS>MOLECULE
711
   66    70     1     0     0
SMALL
bcc


@<TRIPOS>ATOM
      1 N1          0.5390    1.3110   -0.0930 n2        1 711     -0.670100
      2 C1          1.6080    1.6540   -0.6780 ce        1 711      0.624800
      3 N2          2.4640    2.8700   -0.3170 n4        1 711     -0.886600
      4 C2          2.1980    0.9210   -1.8270 ca        1 711     -0.204900
      5 C3          1.4250    0.6680   -2.9420 ca        1 711     -0.026000
      6 C4          1.9660   -0.0750   -4.0260 ca        1 711     -0.054000
      7 C5          1.1920   -0.3610   -5.1850 ca        1 711     -0.084000
      8 C6          1.7390   -1.0750   -6.2290 ca        1 711     -0.123300
      9 C7          3.0800   -1.5360   -6.1520 ca        1 711     -0.097000
     10 C8          3.8410   -1.2850   -5.0370 ca        1 711     -0.099000
     11 C9          3.3010   -0.5500   -3.9460 ca        1 711     -0.002000
     12 C10         4.0640   -0.2880   -2.7740 ca        1 711     -0.079000
     13 C11         3.5270    0.4260   -1.7330 ca        1 711     -0.127000
     14 C12         0.9410   -1.3040   -7.4810 c3        1 711      0.078600
     15 N21         0.8810   -2.6760   -7.9320 na        1 711     -0.115200
     16 C21        -0.0120   -3.6400   -7.4810 cc        1 711      0.313800
     17 C22        -1.0860   -3.4150   -6.4790 c3        1 711     -0.156400
     18 N22         0.2300   -4.8290   -8.1300 na        1 711     -0.175300
     19 C23         1.3020   -4.6470   -9.0240 ca        1 711     -0.117200
     20 C24         1.9390   -5.5190   -9.9240 ca        1 711     -0.053000
     21 C25         2.9740   -5.0130  -10.6800 ca        1 711     -0.118000
     22 C26         3.3900   -3.6490  -10.5610 ca        1 711      0.207100
     23 C27         2.7740   -2.7630   -9.6700 ca        1 711     -0.224000
     24 C28         1.7250   -3.2740   -8.8990 ca        1 711     -0.020200
     25 O           4.4370   -3.3420  -11.3760 os        1 711     -0.303900
     26 C31         4.9040   -1.9740  -11.4360 c3        1 711      0.144100
     27 C32         3.9610   -1.1290  -12.2800 c3        1 711     -0.133400
     28 C33         4.5950    0.2340  -12.5790 c3        1 711      0.182800
     29 N31         5.9270    0.1800  -13.1440 nh        1 711     -0.750600
     30 C34         6.8150   -0.6710  -12.3810 c3        1 711      0.182800
     31 C35         6.2860   -2.0760  -12.0780 c3        1 711     -0.133400
     32 C36         5.9950    0.1020  -14.5880 c2        1 711      0.591200
     33 N32         6.5920   -0.7880  -15.3070 n2        1 711     -0.791100
     34 C37         5.3180    1.2670  -15.2920 c3        1 711     -0.132400
     35 HN1         0.1300    1.7990    0.6740 hn        1 711      0.472400
     36 HN21        2.1520    3.3320    0.5420 hn        1 711      0.462467
     37 HN2A        3.4370    2.5700   -0.1980 hn        1 711      0.462467
     38 H3          0.3840    1.0240   -3.0080 ha        1 711      0.160000
     39 H5          0.1550    0.0100   -5.2290 ha        1 711      0.148000
     40 H7          3.5060   -2.0950   -7.0020 ha        1 711      0.154000
     41 H8          4.8810   -1.6460   -4.9720 ha        1 711      0.166000
     42 H10         5.0940   -0.6810   -2.7120 ha        1 711      0.170000
     43 H11         4.1150    0.5770   -0.8140 ha        1 711      0.142000
     44 H121        1.4060   -0.7010   -8.3190 h1        1 711      0.098200
     45 H122       -0.1210   -0.9460   -7.3330 h1        1 711      0.098200
     46 H221       -1.9380   -2.8700   -6.9640 hc        1 711      0.101367
     47 H222       -1.4680   -4.3860   -6.0720 hc        1 711      0.101367
     48 H223       -0.6970   -2.7990   -5.6280 hc        1 711      0.101367
     49 HN22       -0.2830   -5.6720   -8.0020 hn        1 711      0.355700
     50 H24         1.6190   -6.5690  -10.0240 ha        1 711      0.179000
     51 H25         3.5070   -5.6540  -11.4050 ha        1 711      0.193000
     52 H27         3.0830   -1.7130   -9.5850 ha        1 711      0.166000
     53 H31         4.9950   -1.5630  -10.3940 h1        1 711      0.045700
     54 H321        2.9920   -0.9740  -11.7420 hc        1 711      0.067950
     55 H322        3.7370   -1.6700  -13.2370 hc        1 711      0.067950
     56 H331        4.6710    0.8110  -11.6120 h1        1 711      0.064450
     57 H332        3.9120    0.8050  -13.2670 h1        1 711      0.064450
     58 H341        6.9990   -0.1430  -11.3990 h1        1 711      0.064450
     59 H342        7.8100   -0.7580  -12.9000 h1        1 711      0.064450
     60 H351        6.2170   -2.6890  -13.0140 hc        1 711      0.067950
     61 H352        6.9900   -2.5980  -11.3820 hc        1 711      0.067950
     62 HN32        7.0350   -1.5500  -14.8400 hn        1 711      0.387400
     63 H371        5.7990    1.4510  -16.2850 hc        1 711      0.064367
     64 H372        4.2410    1.0210  -15.4610 hc        1 711      0.064367
     65 H373        5.3950    2.2000  -14.6840 hc        1 711      0.064367
     66 H23         2.4240    3.5420   -1.0900 hn        1 711      0.462467
@<TRIPOS>BOND
     1    1    2 2   
     2    1   35 1   
     3    2    3 1   
     4    2    4 1   
     5    3   36 1   
     6    3   37 1   
     7    3   66 1   
     8    4    5 ar  
     9    4   13 ar  
    10    5    6 ar  
    11    5   38 1   
    12    6    7 ar  
    13    6   11 ar  
    14    7    8 ar  
    15    7   39 1   
    16    8    9 ar  
    17    8   14 1   
    18    9   10 ar  
    19    9   40 1   
    20   10   11 ar  
    21   10   41 1   
    22   11   12 ar  
    23   12   13 ar  
    24   12   42 1   
    25   13   43 1   
    26   14   15 1   
    27   14   44 1   
    28   14   45 1   
    29   15   16 2   
    30   15   24 1   
    31   16   17 1   
    32   16   18 1   
    33   17   46 1   
    34   17   47 1   
    35   17   48 1   
    36   18   19 1   
    37   18   49 1   
    38   19   20 ar  
    39   19   24 ar  
    40   20   21 ar  
    41   20   50 1   
    42   21   22 ar  
    43   21   51 1   
    44   22   23 ar  
    45   22   25 1   
    46   23   24 ar  
    47   23   52 1   
    48   25   26 1   
    49   26   27 1   
    50   26   31 1   
    51   26   53 1   
    52   27   28 1   
    53   27   54 1   
    54   27   55 1   
    55   28   29 1   
    56   28   56 1   
    57   28   57 1   
    58   29   30 1   
    59   29   32 1   
    60   30   31 1   
    61   30   58 1   
    62   30   59 1   
    63   31   60 1   
    64   31   61 1   
    65   32   33 2   
    66   32   34 1   
    67   33   62 1   
    68   34   63 1   
    69   34   64 1   
    70   34   65 1   
@<TRIPOS>SUBSTRUCTURE
     1 711         1 TEMP              0 ****  ****    0 ROOT
