@<TRIPOS>MOLECULE
711
   66    70     1     0     0
SMALL
bcc


@<TRIPOS>ATOM
      1 N1          0.6080    1.2890   -0.0660 n2        1 711     -0.670100
      2 C1          1.6780    1.6210   -0.6530 ce        1 711      0.624800
      3 N2          2.5540    2.8220   -0.2860 nz        1 711     -0.886600
      4 C2          2.2530    0.8880   -1.8100 ca        1 711     -0.204900
      5 C3          1.4710    0.6550   -2.9230 ca        1 711     -0.026000
      6 C4          1.9960   -0.0880   -4.0160 ca        1 711     -0.054000
      7 C5          1.2130   -0.3530   -5.1730 ca        1 711     -0.084000
      8 C6          1.7450   -1.0670   -6.2250 ca        1 711     -0.123300
      9 C7          3.0790   -1.5490   -6.1580 ca        1 711     -0.097000
     10 C8          3.8480   -1.3180   -5.0440 ca        1 711     -0.099000
     11 C9          3.3240   -0.5830   -3.9460 ca        1 711     -0.002000
     12 C10         4.0960   -0.3420   -2.7740 ca        1 711     -0.079000
     13 C11         3.5750    0.3730   -1.7260 ca        1 711     -0.127000
     14 C12         0.9380   -1.2740   -7.4760 c3        1 711      0.078600
     15 N21         0.8560   -2.6410   -7.9380 na        1 711     -0.115200
     16 C21        -0.0490   -3.5960   -7.4920 cc        1 711      0.313800
     17 C22        -1.1170   -3.3640   -6.4840 c3        1 711     -0.156400
     18 N22         0.1730   -4.7820   -8.1510 na        1 711     -0.175300
     19 C23         1.2460   -4.6090   -9.0470 ca        1 711     -0.117200
     20 C24         1.8670   -5.4830   -9.9560 ca        1 711     -0.053000
     21 C25         2.9060   -4.9860  -10.7110 ca        1 711     -0.118000
     22 C26         3.3430   -3.6300  -10.5820 ca        1 711      0.207100
     23 C27         2.7430   -2.7420   -9.6820 ca        1 711     -0.224000
     24 C28         1.6880   -3.2440   -8.9120 ca        1 711     -0.020200
     25 O           4.3920   -3.3310  -11.3970 os        1 711     -0.303900
     26 C31         4.8790   -1.9690  -11.4480 c3        1 711      0.144100
     27 C32         3.9460   -1.1050  -12.2830 c3        1 711     -0.133400
     28 C33         4.5990    0.2520  -12.5720 c3        1 711      0.182800
     29 N31         5.9280    0.1830  -13.1410 nh        1 711     -0.750600
     30 C34         6.8060   -0.6870  -12.3870 c3        1 711      0.182800
     31 C35         6.2580   -2.0860  -12.0950 c3        1 711     -0.133400
     32 C36         5.9920    0.1150  -14.5860 c2        1 711      0.591200
     33 N32         6.5750   -0.7770  -15.3140 n2        1 711     -0.791100
     34 C37         5.3300    1.2960  -15.2790 c3        1 711     -0.132400
     35 HN1         0.2090    1.7770    0.7070 hn        1 711      0.472400
     36 HN21        3.5240    2.5060   -0.1770 hn        1 711      0.462800
     37 HN2A        2.2550    3.2800    0.5790 hn        1 711      0.462800
     38 H3          0.4350    1.0280   -2.9820 ha        1 711      0.160000
     39 H5          0.1820    0.0340   -5.2110 ha        1 711      0.148000
     40 H7          3.4930   -2.1080   -7.0140 ha        1 711      0.154000
     41 H8          4.8830   -1.6950   -4.9860 ha        1 711      0.166000
     42 H10         5.1200   -0.7510   -2.7200 ha        1 711      0.170000
     43 H11         4.1680    0.5070   -0.8080 ha        1 711      0.142000
     44 H121        1.4080   -0.6710   -8.3110 h1        1 711      0.098200
     45 H122       -0.1180   -0.9020   -7.3200 h1        1 711      0.098200
     46 H221       -0.7160   -2.7630   -5.6280 hc        1 711      0.101367
     47 H222       -1.9620   -2.7990   -6.9630 hc        1 711      0.101367
     48 H223       -1.5140   -4.3320   -6.0870 hc        1 711      0.101367
     49 HN22       -0.3510   -5.6190   -8.0290 hn        1 711      0.355700
     50 H24         1.5310   -6.5270  -10.0630 ha        1 711      0.179000
     51 H25         3.4290   -5.6280  -11.4430 ha        1 711      0.193000
     52 H27         3.0680   -1.6970   -9.5900 ha        1 711      0.166000
     53 H31         4.9790   -1.5690  -10.4030 h1        1 711      0.045700
     54 H321        2.9810   -0.9400  -11.7410 hc        1 711      0.067950
     55 H322        3.7120   -1.6340  -13.2430 hc        1 711      0.067950
     56 H331        4.6860    0.8200  -11.6010 h1        1 711      0.064450
     57 H332        3.9220    0.8390  -13.2540 h1        1 711      0.064450
     58 H341        7.0010   -0.1700  -11.4020 h1        1 711      0.064450
     59 H342        7.7990   -0.7840  -12.9100 h1        1 711      0.064450
     60 H351        6.1770   -2.6910  -13.0350 hc        1 711      0.067950
     61 H352        6.9560   -2.6240  -11.4040 hc        1 711      0.067950
     62 HN32        7.0080   -1.5490  -14.8550 hn        1 711      0.387400
     63 H371        5.8110    1.4810  -16.2720 hc        1 711      0.064367
     64 H372        5.4220    2.2230  -14.6640 hc        1 711      0.064367
     65 H373        4.2490    1.0670  -15.4470 hc        1 711      0.064367
     66 H23         2.5190    3.5010   -1.0530 hn        1 711      0.462800
@<TRIPOS>BOND
     1    1    2 2   
     2    1   35 1   
     3    2    3 1   
     4    2    4 1   
     5    3   36 1   
     6    3   37 1   
     7    3   66 1   
     8    4    5 ar  
     9    4   13 ar  
    10    5    6 ar  
    11    5   38 1   
    12    6    7 ar  
    13    6   11 ar  
    14    7    8 ar  
    15    7   39 1   
    16    8    9 ar  
    17    8   14 1   
    18    9   10 ar  
    19    9   40 1   
    20   10   11 ar  
    21   10   41 1   
    22   11   12 ar  
    23   12   13 ar  
    24   12   42 1   
    25   13   43 1   
    26   14   15 1   
    27   14   44 1   
    28   14   45 1   
    29   15   16 2   
    30   15   24 1   
    31   16   17 1   
    32   16   18 1   
    33   17   46 1   
    34   17   47 1   
    35   17   48 1   
    36   18   19 1   
    37   18   49 1   
    38   19   20 ar  
    39   19   24 ar  
    40   20   21 ar  
    41   20   50 1   
    42   21   22 ar  
    43   21   51 1   
    44   22   23 ar  
    45   22   25 1   
    46   23   24 ar  
    47   23   52 1   
    48   25   26 1   
    49   26   27 1   
    50   26   31 1   
    51   26   53 1   
    52   27   28 1   
    53   27   54 1   
    54   27   55 1   
    55   28   29 1   
    56   28   56 1   
    57   28   57 1   
    58   29   30 1   
    59   29   32 1   
    60   30   31 1   
    61   30   58 1   
    62   30   59 1   
    63   31   60 1   
    64   31   61 1   
    65   32   33 2   
    66   32   34 1   
    67   33   62 1   
    68   34   63 1   
    69   34   64 1   
    70   34   65 1   
@<TRIPOS>SUBSTRUCTURE
     1 711         1 TEMP              0 ****  ****    0 ROOT
