@<TRIPOS>MOLECULE
712
   70    72     1     0     0
SMALL
bcc


@<TRIPOS>ATOM
      1 C           4.3190    1.9920    0.7640 c3        1 712      0.166200
      2 N           3.8700    2.0930   -0.6120 n3        1 712     -0.884800
      3 C1          3.2710    1.4210    1.7470 c         1 712      0.581100
      4 O           1.9900    1.4010    1.2660 os        1 712     -0.453900
      5 O2          3.4620    1.0130    2.8930 o         1 712     -0.538000
      6 C3          4.6870    3.3720    1.3360 c3        1 712     -0.095100
      7 C4          5.5410    1.0420    0.8930 c3        1 712     -0.030100
      8 C5          6.7090    1.4740    0.0830 ca        1 712     -0.074300
      9 C6          6.8220    1.0950   -1.2600 ca        1 712     -0.116000
     10 C7          8.9450    2.2390   -1.4210 ca        1 712     -0.127000
     11 C8          8.8400    2.6190   -0.0830 ca        1 712     -0.130500
     12 C9          7.9350    1.4780   -2.0080 ca        1 712     -0.130500
     13 C10         7.7270    2.2390    0.6660 ca        1 712     -0.116000
     14 C11        -2.7510    0.6620    0.0540 ca        1 712     -0.131000
     15 C12        -2.4110   -0.2960    1.0090 ca        1 712     -0.103600
     16 C13        -1.1920   -0.2360    1.6850 ca        1 712     -0.124000
     17 C14        -0.3030    0.8020    1.3930 ca        1 712     -0.071300
     18 C15        -0.6250    1.7640    0.4350 ca        1 712     -0.127000
     19 C16        -1.8590    1.7150   -0.2510 ca        1 712      0.168600
     20 N17        -2.2040    2.6980   -1.2010 nh        1 712     -0.671900
     21 N19        -2.9280   -2.6500    1.4650 n         1 712     -0.556900
     22 O20        -4.6250   -1.0970    1.4310 o         1 712     -0.601100
     23 S          -3.3680    2.5140   -2.3600 s6        1 712      1.455900
     24 C21        -4.7870    2.9640   -1.5450 c3        1 712     -0.373300
     25 O22        -3.1430    3.4540   -3.3870 o         1 712     -0.641300
     26 O23        -3.4880    1.1720   -2.7560 o         1 712     -0.641300
     27 C24        -1.4540    3.9250   -1.1660 c3        1 712      0.191100
     28 C25        -3.8080   -3.7920    1.6150 c3        1 712      0.143000
     29 C26        -3.7960   -4.6860    0.3950 ca        1 712     -0.126300
     30 C27        -2.6280   -5.3490    0.0050 ca        1 712     -0.093000
     31 C28        -3.8040   -6.3480   -1.8540 ca        1 712      0.130900
     32 C29        -4.9820   -5.6790   -1.4710 ca        1 712     -0.165000
     33 C30        -2.6200   -6.1790   -1.1110 ca        1 712     -0.165000
     34 C31        -4.9660   -4.8520   -0.3530 ca        1 712     -0.093000
     35 C32        -3.4600   -4.6260    2.8530 c3        1 712     -0.100100
     36 F          -3.8080   -7.1550   -2.9400 f         1 712     -0.138900
     37 C33         0.9810    0.8810    2.1520 c3        1 712      0.183700
     38 HN1         3.6550    1.1870   -0.9800 hn        1 712      0.363300
     39 HN2         3.0640    2.6820   -0.6750 hn        1 712      0.363300
     40 H31A        4.9820    3.2580    2.4070 hc        1 712      0.056700
     41 H32         5.5490    3.7950    0.7640 hc        1 712      0.056700
     42 H33         3.8240    4.0750    1.2690 hc        1 712      0.056700
     43 H41         5.8170    1.0010    1.9820 hc        1 712      0.064700
     44 H42         5.2300    0.0070    0.5850 hc        1 712      0.064700
     45 H6          6.0240    0.5000   -1.7290 ha        1 712      0.130500
     46 H7          9.8230    2.5380   -2.0110 ha        1 712      0.131000
     47 H8          9.6350    3.2180    0.3840 ha        1 712      0.131500
     48 H9          8.0140    1.1780   -3.0630 ha        1 712      0.131500
     49 H10         7.6460    2.5400    1.7210 ha        1 712      0.130500
     50 H11        -3.7230    0.5560   -0.4600 ha        1 712      0.164000
     51 H13        -0.9350   -0.9830    2.4510 ha        1 712      0.145000
     52 H15         0.1140    2.5540    0.2240 ha        1 712      0.152000
     53 HN19       -1.9900   -2.8400    1.2030 hn        1 712      0.309500
     54 H211       -4.8320    4.0550   -1.3080 h1        1 712      0.121700
     55 H212       -5.6840    2.7470   -2.1810 h1        1 712      0.121700
     56 H213       -4.9600    2.4230   -0.5810 h1        1 712      0.121700
     57 H241       -0.4130    3.7690   -1.5620 h1        1 712      0.055367
     58 H242       -1.9630    4.6960   -1.8080 h1        1 712      0.055367
     59 H243       -1.3840    4.3190   -0.1160 h1        1 712      0.055367
     60 H25        -4.8590   -3.3880    1.7570 h1        1 712      0.095700
     61 H27        -1.7030   -5.2210    0.5890 ha        1 712      0.139000
     62 H29        -5.9000   -5.8130   -2.0610 ha        1 712      0.150500
     63 H30        -1.7040   -6.7020   -1.4190 ha        1 712      0.150500
     64 H31        -5.8870   -4.3210   -0.0600 ha        1 712      0.139000
     65 H321       -4.1790   -5.4770    2.9230 hc        1 712      0.044700
     66 H322       -2.4250   -5.0380    2.7880 hc        1 712      0.044700
     67 H323       -3.5430   -4.0060    3.7770 hc        1 712      0.044700
     68 H331        1.3070   -0.1270    2.5240 h1        1 712      0.066700
     69 H332        0.8860    1.5820    3.0250 h1        1 712      0.066700
     70 C18        -3.4140   -1.3660    1.3050 c         1 712      0.673700
@<TRIPOS>BOND
     1    1    2 1   
     2    1    3 1   
     3    1    6 1   
     4    1    7 1   
     5    2   38 1   
     6    2   39 1   
     7    3    4 1   
     8    3    5 2   
     9    4   37 1   
    10    6   40 1   
    11    6   41 1   
    12    6   42 1   
    13    7    8 1   
    14    7   43 1   
    15    7   44 1   
    16    8    9 ar  
    17    8   13 ar  
    18    9   12 ar  
    19    9   45 1   
    20   10   11 ar  
    21   10   12 ar  
    22   10   46 1   
    23   11   13 ar  
    24   11   47 1   
    25   12   48 1   
    26   13   49 1   
    27   14   15 ar  
    28   14   19 ar  
    29   14   50 1   
    30   15   16 ar  
    31   15   70 1   
    32   16   17 ar  
    33   16   51 1   
    34   17   18 ar  
    35   17   37 1   
    36   18   19 ar  
    37   18   52 1   
    38   19   20 1   
    39   20   23 1   
    40   20   27 1   
    41   21   28 1   
    42   21   53 1   
    43   21   70 1   
    44   22   70 2   
    45   23   24 1   
    46   23   25 2   
    47   23   26 2   
    48   24   54 1   
    49   24   55 1   
    50   24   56 1   
    51   27   57 1   
    52   27   58 1   
    53   27   59 1   
    54   28   29 1   
    55   28   35 1   
    56   28   60 1   
    57   29   30 ar  
    58   29   34 ar  
    59   30   33 ar  
    60   30   61 1   
    61   31   32 ar  
    62   31   33 ar  
    63   31   36 1   
    64   32   34 ar  
    65   32   62 1   
    66   33   63 1   
    67   34   64 1   
    68   35   65 1   
    69   35   66 1   
    70   35   67 1   
    71   37   68 1   
    72   37   69 1   
@<TRIPOS>SUBSTRUCTURE
     1 712         1 TEMP              0 ****  ****    0 ROOT
