@<TRIPOS>MOLECULE
712
   70    64     1     0     0
SMALL
bcc


@<TRIPOS>ATOM
      1 C           2.9120   -2.9640   -2.7320 c3        1 712      0.048000
      2 N           1.7500   -2.5680   -3.4510 n3        1 712     -0.328000
      3 C1          2.7840   -2.5190   -1.2690 c2        1 712      0.313000
      4 O           1.5250   -2.0860   -0.7650 os        1 712     -0.274000
      5 O2          3.7710   -2.4840   -0.5540 o         1 712     -0.356000
      6 C3          3.0530   -4.4610   -2.7910 c3        1 712     -0.209000
      7 C4          4.1380   -2.3150   -3.3550 c3        1 712     -0.163000
      8 C5          4.1530   -2.5950   -4.8730 c2        1 712     -0.083000
      9 C6          5.1430   -3.4030   -5.4190 c1        1 712     -0.123000
     10 C7          4.3300   -2.9080   -7.6310 c1        1 712     -0.126000
     11 C8          3.3400   -2.1010   -7.0870 c1        1 712     -0.125000
     12 C9          5.2320   -3.5600   -6.7980 c1        1 712     -0.126000
     13 C10         3.2500   -1.9440   -5.7080 c2        1 712     -0.135000
     14 C11        -1.6910    0.3700    2.2330 c1        1 712     -0.109000
     15 C12        -0.3930    0.8510    2.0270 c1        1 712     -0.110000
     16 C13         0.5860    0.0110    1.4890 c1        1 712     -0.065000
     17 C14         0.2710   -1.3010    1.1580 c1        1 712     -0.109000
     18 C15        -1.0280   -1.7820    1.3650 c1        1 712     -0.104000
     19 C16        -2.0070   -0.9410    1.9030 c1        1 712      0.036000
     20 N17        -3.3740   -1.4590    2.1520 n3        1 712     -0.783000
     21 C18        -0.0490    2.2940    2.3790 c2        1 712      0.347000
     22 N19        -1.0890    3.1960    2.8170 n         1 712     -0.366000
     23 O20         1.0780    2.7090    2.2000 o         1 712     -0.369000
     24 S          -3.7650   -2.0770    3.6270 s4        1 712      2.031800
     25 C21        -4.6490   -3.5980    3.4390 c2        1 712     -0.945000
     26 O22        -4.5170   -1.1280    4.4090 o         1 712     -0.540400
     27 O23        -2.5980   -2.2500    4.4450 o         1 712     -0.540400
     28 C24        -4.3820   -1.3750    1.1130 c3        1 712     -0.082000
     29 C25        -0.7550    4.5080    3.2450 c3        1 712      0.061000
     30 C26        -1.7280    5.5060    2.6300 c2        1 712     -0.120000
     31 C27        -1.4820    6.0170    1.3550 c2        1 712     -0.089000
     32 C28        -3.3150    7.5560    1.6160 c1        1 712      0.092000
     33 C29        -3.5610    7.0480    2.8870 c1        1 712     -0.164000
     34 C30        -2.2760    7.0410    0.8510 c1        1 712     -0.168000
     35 C31        -2.7650    6.0210    3.3940 c1        1 712     -0.097000
     36 C32        -0.8360    4.5830    4.7560 c3        1 712     -0.219000
     37 F          -4.0350    8.5940    1.1570 f         1 712     -0.107000
     38 C33         1.3760   -2.2540    0.6380 c3        1 712      0.024000
     39 HN1         1.9500   -1.8520   -3.9810 hn        1 712      0.162500
     40 HN2         1.4610   -3.2660   -3.9740 hn        1 712      0.162500
     41 H31A        2.3920   -4.8750   -2.1990 hc        1 712      0.094667
     42 H32         2.9050   -4.7670   -3.7100 hc        1 712      0.094667
     43 H33         3.9520   -4.7160   -2.5040 hc        1 712      0.094667
     44 H41         4.9480   -2.6870   -2.9460 hc        1 712      0.106500
     45 H42         4.1090   -1.3510   -3.2030 hc        1 712      0.106500
     46 H6          5.7780   -3.8620   -4.8320 ha        1 712      0.134000
     47 H7          4.3930   -3.0190   -8.6030 ha        1 712      0.135000
     48 H8          2.7000   -1.6390   -7.6780 ha        1 712      0.135000
     49 H9          5.9340   -4.1320   -7.1840 ha        1 712      0.135000
     50 H10         2.5830   -1.3370   -5.3270 ha        1 712      0.132000
     51 H11        -2.3710    0.9540    2.6070 ha        1 712      0.170000
     52 H13         1.4920    0.3470    1.3450 ha        1 712      0.161000
     53 H15        -1.2480   -2.6970    1.1340 ha        1 712      0.164000
     54 HN19       -1.9690    2.9450    2.7570 hn        1 712      0.231000
     55 H211       -4.1380   -4.2040    2.8640 ha        1 712      0.157000
     56 H212       -5.5220   -3.4200    3.0300 ha        1 712      0.157000
     57 H213       -4.7770   -4.0100    4.3140 ha        1 712      0.157000
     58 H241       -4.0610   -0.7990    0.3930 h1        1 712      0.097333
     59 H242       -4.5620   -2.2780    0.7560 h1        1 712      0.097333
     60 H243       -5.2150   -0.9980    1.4910 h1        1 712      0.097333
     61 H25         0.1560    4.7220    2.9570 h1        1 712      0.133000
     62 H27        -0.7530    5.6560    0.8170 ha        1 712      0.144000
     63 H29        -4.2910    7.4100    3.4230 ha        1 712      0.151000
     64 H30        -2.1020    7.4000   -0.0480 ha        1 712      0.149000
     65 H31        -2.9370    5.6650    4.2820 ha        1 712      0.141000
     66 H321        0.0530    4.3930    5.1430 hc        1 712      0.084667
     67 H322       -1.4860    3.9200    5.0830 hc        1 712      0.084667
     68 H323       -1.1250    5.4860    5.0250 hc        1 712      0.084667
     69 H331        2.2310   -2.0450    1.0870 h1        1 712      0.114500
     70 H332        1.1250   -3.1790    0.8310 h1        1 712      0.114500
@<TRIPOS>BOND
     1    1    2 1   
     2    1    3 1   
     3    1    6 1   
     4    1    7 1   
     5    2   39 1   
     6    2   40 1   
     7    3    4 1   
     8    3    5 1   
     9    4   38 1   
    10    6   41 1   
    11    6   42 1   
    12    6   43 1   
    13    7    8 1   
    14    7   44 1   
    15    7   45 1   
    16    8    9 1   
    17    8   13 1   
    18    9   46 1   
    19   10   12 1   
    20   10   47 1   
    21   11   13 1   
    22   11   48 1   
    23   12   49 1   
    24   13   50 1   
    25   14   19 1   
    26   14   51 1   
    27   15   16 1   
    28   15   21 1   
    29   16   52 1   
    30   17   18 1   
    31   17   38 1   
    32   18   53 1   
    33   19   20 1   
    34   20   24 1   
    35   20   28 1   
    36   21   22 1   
    37   21   23 1   
    38   22   29 1   
    39   22   54 1   
    40   24   26 1   
    41   24   27 1   
    42   25   55 1   
    43   25   56 1   
    44   25   57 1   
    45   28   58 1   
    46   28   59 1   
    47   28   60 1   
    48   29   30 1   
    49   29   36 1   
    50   29   61 1   
    51   30   31 1   
    52   30   35 1   
    53   31   34 1   
    54   31   62 1   
    55   32   33 1   
    56   32   37 1   
    57   33   63 1   
    58   34   64 1   
    59   35   65 1   
    60   36   66 1   
    61   36   67 1   
    62   36   68 1   
    63   38   69 1   
    64   38   70 1   
@<TRIPOS>SUBSTRUCTURE
     1 712         1 TEMP              0 ****  ****    0 ROOT
