@<TRIPOS>MOLECULE
712
   73    72     1     0     0
SMALL
bcc


@<TRIPOS>ATOM
      1 C          47.2210   -4.2160  122.6460 c3        1 712     -0.055000
      2 N        -280.5030   19.2310 -778.8510 n4        1 712     -0.111000
      3 C1         45.9410   -3.5430  123.0690 c2        1 712      0.318000
      4 O          45.8570   -3.3170  124.4500 os        1 712     -0.298000
      5 O2         44.9830   -3.1840  122.4000 o         1 712     -0.284000
      6 C3         47.2480   -5.6520  123.1330 c3        1 712     -0.211000
      7 C4         48.4010   -3.4550  123.1380 c2        1 712     -0.195000
      8 C5         49.3020   -2.8580  122.3450 c2        1 712      0.011000
      9 C6       -281.0740   20.0160 -777.7740 c1        1 712      0.129000
     10 C7       -281.9540   21.0990 -777.9870 c2        1 712     -0.348000
     11 C8         49.2650   -2.7950  119.7450 c1        1 712     -0.119000
     12 C9       -282.4280   21.6210 -779.1410 c2        1 712      0.042000
     13 C10        49.2630   -2.8360  120.9430 c1        1 712     -0.198000
     14 C11        45.7630   -4.6910  128.1300 c1        1 712     -0.122000
     15 C12        46.2580   -4.2370  129.1220 c1        1 712     -0.129000
     16 C13        44.9680   -2.0140  126.3050 cx        1 712     -0.192000
     17 C14        43.9110   -3.0840  126.0490 cx        1 712     -0.275000
     18 C15        44.0080   -4.4230  126.4210 c1        1 712     -0.074000
     19 C16        45.1740   -5.1760  126.9050 c3        1 712      0.027000
     20 N17        44.7300   -6.6330  127.0310 n4        1 712     -0.446000
     21 N19        46.6510   -2.4930  130.7380 n         1 712     -0.364000
     22 O20        47.5840   -4.5750  131.0250 o         1 712     -0.338000
     23 S          46.1180   -7.8890  126.8970 s6        1 712      2.758000
     24 C21        46.6130   -7.9960  128.4620 c3        1 712     -1.029000
     25 O22        45.4380   -9.0060  126.4600 o         1 712     -0.841500
     26 O23        47.0280   -7.2330  126.0860 o         1 712     -0.841500
     27 C24        43.8620   -6.8440  128.2000 c3        1 712     -0.199000
     28 C25        47.0410   -2.0170  132.0400 c3        1 712      0.079000
     29 C26        48.4420   -1.3670  132.0270 c2        1 712      0.024000
     30 C27        49.6520    0.6680  131.3150 c2        1 712     -0.099000
     31 C28        51.2030   -3.4500  133.2330 c2        1 712      0.345000
     32 C29        50.2890   -2.4450  133.5840 c2        1 712     -0.237000
     33 C30        48.6210   -0.1790  131.2110 c2        1 712     -0.186000
     34 C31        49.3800   -1.9110  132.7580 c1        1 712      0.065000
     35 C32        46.0660   -0.9910  132.6220 c3        1 712     -0.238000
     36 F          51.2800   -3.9850  132.0400 f         1 712      0.011000
     37 C33        44.8300   -2.4970  124.9090 cx        1 712      0.107000
     38 HN1      -280.7750   18.2520 -778.6620 hn        1 712      0.254000
     39 HN2      -279.4780   19.2890 -778.7300 hn        1 712      0.254000
     40 H31A       47.2480   -5.6960  124.2490 hc        1 712      0.092333
     41 H32        48.1770   -6.1500  122.7600 hc        1 712      0.092333
     42 H33        46.3640   -6.2120  122.7430 hc        1 712      0.092333
     43 H41        47.2050   -4.2140  121.5120 hc        1 712      0.159000
     44 H42        48.5080   -3.4210  124.2340 ha        1 712      0.128000
     45 H6         50.1670   -2.3290  122.7930 ha        1 712      0.149000
     46 H7       -283.1210   22.4840 -779.1410 ha        1 712      0.153500
     47 H8         49.2700   -2.7550  118.6820 ha        1 712      0.241000
     48 H9       -282.2720   21.5540 -777.0170 ha        1 712      0.218000
     49 H10      -282.1700   21.2410 -780.1420 ha        1 712      0.153500
     50 H11        45.9690   -5.1590  126.0680 hx        1 712      0.215000
     51 H13        45.8670   -2.3010  126.8810 hc        1 712      0.136000
     52 H15        42.8490   -2.7410  125.9860 hc        1 712      0.193000
     53 HN19       46.0950   -1.8930  130.1730 hn        1 712      0.253000
     54 H211       46.8460   -7.0230  128.9770 h1        1 712      0.210667
     55 H212       47.5780   -8.5830  128.5540 h1        1 712      0.210667
     56 H213       45.9060   -8.5400  129.1490 h1        1 712      0.210667
     57 H241       43.4890   -7.9060  128.1950 hx        1 712      0.143333
     58 H242       44.4280   -6.6330  129.1450 hx        1 712      0.143333
     59 H243       42.9730   -6.1520  128.1510 hx        1 712      0.143333
     60 H25        47.0810   -2.9140  132.7370 h1        1 712      0.136000
     61 H27        49.7250    1.5630  130.6750 ha        1 712      0.146500
     62 H29        50.3440   -2.0820  134.6370 ha        1 712      0.218000
     63 H30        51.9320   -3.8520  133.9820 h4        1 712      0.221000
     64 H31        50.4730    0.5460  132.0350 ha        1 712      0.146500
     65 H321       46.4220   -0.6820  133.6360 hc        1 712      0.115333
     66 H322       45.9930   -0.0810  131.9780 hc        1 712      0.115333
     67 H323       45.0500   -1.4440  132.7270 hc        1 712      0.115333
     68 H331       44.6100   -0.9940  126.5440 hc        1 712      0.136000
     69 H332       44.2970   -1.9170  124.1220 h1        1 712      0.200000
     70 HN3      -280.7380   19.4610 -779.8220 hn        1 712      0.254000
     71 H171       44.1160   -6.7710  126.2090 hn        1 712      0.276000
     72 H192       47.8130    0.0060  130.4810 ha        1 712      0.160000
     73 C18        46.8780   -3.8010  130.3490 c2        1 712      0.427000
@<TRIPOS>BOND
     1    1    3 1   
     2    1    6 1   
     3    1    7 1   
     4    1   43 1   
     5    2    9 1   
     6    2   38 1   
     7    2   39 1   
     8    2   70 1   
     9    3    4 1   
    10    3    5 1   
    11    4   37 1   
    12    6   40 1   
    13    6   41 1   
    14    6   42 1   
    15    7    8 1   
    16    7   44 1   
    17    8   13 1   
    18    8   45 1   
    19    9   10 1   
    20   10   12 1   
    21   10   48 1   
    22   11   13 1   
    23   11   47 1   
    24   12   46 1   
    25   12   49 1   
    26   14   15 1   
    27   14   19 1   
    28   15   73 1   
    29   16   17 1   
    30   16   37 1   
    31   16   51 1   
    32   16   68 1   
    33   17   18 1   
    34   17   37 1   
    35   17   52 1   
    36   18   19 1   
    37   19   20 1   
    38   19   50 1   
    39   20   23 1   
    40   20   27 1   
    41   20   71 1   
    42   21   28 1   
    43   21   53 1   
    44   21   73 1   
    45   22   73 1   
    46   23   24 1   
    47   23   25 1   
    48   23   26 1   
    49   24   54 1   
    50   24   55 1   
    51   24   56 1   
    52   27   57 1   
    53   27   58 1   
    54   27   59 1   
    55   28   29 1   
    56   28   35 1   
    57   28   60 1   
    58   29   33 1   
    59   29   34 1   
    60   30   33 1   
    61   30   61 1   
    62   30   64 1   
    63   31   32 1   
    64   31   36 1   
    65   31   63 1   
    66   32   34 1   
    67   32   62 1   
    68   33   72 1   
    69   35   65 1   
    70   35   66 1   
    71   35   67 1   
    72   37   69 1   
@<TRIPOS>SUBSTRUCTURE
     1 712         1 TEMP              0 ****  ****    0 ROOT
