@<TRIPOS>MOLECULE
712
   72    70     1     0     0
SMALL
bcc


@<TRIPOS>ATOM
      1 C          -0.0880   -1.7050   -0.8290 c3        1 712      0.057000
      2 N           1.3130   -2.0650   -0.9270 n3        1 712     -0.349000
      3 C1         -0.4160   -0.4990    0.0810 c2        1 712      0.264000
      4 O           0.6610    0.0500    0.7210 os        1 712     -0.296000
      5 O2         -1.5260   -0.0010    0.2580 o         1 712     -0.330000
      6 C3         -0.9270   -2.8670   -0.2620 c3        1 712     -0.211000
      7 C4         -0.6600   -1.2920   -2.2130 c3        1 712     -0.146000
      8 C5         -0.4410   -2.3250   -3.2710 cx        1 712     -0.043000
      9 C6         -1.5090   -3.3950   -3.5010 cx        1 712     -0.121000
     10 C7         -1.2990   -5.5580   -4.7080 c1        1 712      0.234000
     11 C8         -1.6050   -1.7840   -5.6270 c2        1 712     -0.079000
     12 C9         -1.0640   -4.7940   -3.7170 c2        1 712     -0.113000
     13 C10        -1.2640   -2.3380   -4.4880 cu        1 712     -0.208000
     14 C11         2.0250   -0.9930    5.5310 c1        1 712     -0.030000
     15 C12         2.4180   -0.6550    6.6110 c1        1 712     -0.236000
     16 C13         2.7260    0.6540    2.6590 c1        1 712     -0.058000
     17 C14         1.2950    0.7750    2.9070 c3        1 712     -0.279000
     18 C15         0.6840   -0.3430    3.6400 c1        1 712      0.060000
     19 C16         1.5730   -1.4170    4.2150 c3        1 712      0.076000
     20 N17         0.8910   -2.7000    4.2200 n3        1 712     -0.824000
     21 N19         4.8780    2.6130   10.1710 n3        1 712     -0.246000
     22 O20         3.4830    0.7320    8.1830 o         1 712     -0.349000
     23 S           1.2210   -3.8340    3.0950 s6        1 712      2.819000
     24 C21         2.3880   -4.8060    3.8350 c3        1 712     -0.949000
     25 O22         0.0830   -4.6120    2.8040 o         1 712     -0.946500
     26 O23         1.8020   -3.2130    1.9590 o         1 712     -0.946500
     27 C24        -0.2300   -2.8220    5.1090 c3        1 712     -0.086000
     28 C25         5.7580    3.2400    9.4230 c2        1 712      0.319000
     29 C26         6.6480    4.1840    9.9650 c1        1 712     -0.295000
     30 C27         4.2900    3.0380   14.1020 c2        1 712     -0.433000
     31 C28         9.2500    6.6090   10.1610 c2        1 712      0.134000
     32 C29         8.3250    5.9360   10.8930 c2        1 712     -0.214000
     33 C30         4.5050    2.9220   12.8380 c1        1 712      0.063000
     34 C31         7.4290    4.9980   10.3880 c1        1 712      0.116000
     35 C32         5.8860    3.0020    7.9490 c3        1 712     -0.250000
     36 F           9.4210    6.4560    8.8430 f         1 712     -0.078000
     37 C33         0.4240    1.0910    1.6790 c3        1 712     -0.009000
     38 HN1        -2.4420   -3.3850   -2.8900 hc        1 712      0.191000
     39 HN2         1.6320   -2.5020   -0.0800 hn        1 712      0.183500
     40 H31A       -0.9060   -3.7270   -0.9720 hc        1 712      0.093000
     41 H32        -0.5220   -3.2110    0.7230 hc        1 712      0.093000
     42 H33        -1.9830   -2.5320   -0.1220 hc        1 712      0.093000
     43 H41        -1.7540   -1.0760   -2.0800 hc        1 712      0.120000
     44 H42        -0.1650   -0.3410   -2.5490 hc        1 712      0.120000
     45 H6          0.6250   -2.6310   -3.3700 hc        1 712      0.161000
     46 H7         -0.4600   -5.1630   -2.8320 ha        1 712      0.308000
     47 H8         -2.3760   -2.2050   -6.2900 ha        1 712      0.151000
     48 H9         -1.4870   -6.2210   -5.5400 ha        1 712      0.289000
     49 H10        -1.1340   -0.8520   -5.9820 ha        1 712      0.151000
     50 H11         2.5170   -1.5370    3.5720 h1        1 712      0.163000
     51 H13         3.1150    1.0970    1.7310 ha        1 712      0.071000
     52 H15         1.1920    1.6720    3.6160 hc        1 712      0.216000
     53 HN19        4.2590    1.9440    9.7480 hn        1 712      0.303500
     54 H211        3.3580   -4.2830    4.0250 h1        1 712      0.166333
     55 H212        2.0670   -5.2410    4.8150 h1        1 712      0.166333
     56 H213        2.6380   -5.6850    3.1840 h1        1 712      0.166333
     57 H241       -0.8290   -3.7370    4.8450 h1        1 712      0.100667
     58 H242        0.1260   -2.9090    6.1710 h1        1 712      0.100667
     59 H243       -0.8960   -1.9200    5.0250 h1        1 712      0.100667
     60 H25         4.7780    2.7770   11.2250 hn        1 712      0.303500
     61 H27         4.8160    2.4530   14.8840 ha        1 712      0.237000
     62 H29         8.2630    6.1360   11.9810 ha        1 712      0.187000
     63 H30         9.9380    7.3470   10.6210 h4        1 712      0.182000
     64 H31         3.5520    3.7340   14.5510 ha        1 712      0.237000
     65 H321        5.7410    3.9740    7.4100 hc        1 712      0.142000
     66 H322        6.9200    2.6310    7.7290 hc        1 712      0.142000
     67 H323        5.1420    2.2580    7.5640 hc        1 712      0.142000
     68 H331        0.7650    2.0450    1.1960 h1        1 712      0.125000
     69 H332       -0.6600    1.1510    1.9590 h1        1 712      0.125000
     70 HN3         1.8710   -1.2560   -1.1170 hn        1 712      0.183500
     71 H192        2.6100   -1.0510    8.7050 h4        1 712      0.128000
     72 C18         2.8640   -0.3050    7.9140 c2        1 712      0.336000
@<TRIPOS>BOND
     1    1    2 1   
     2    1    3 1   
     3    1    6 1   
     4    1    7 1   
     5    2   39 1   
     6    2   70 1   
     7    3    4 1   
     8    3    5 1   
     9    4   37 1   
    10    6   40 1   
    11    6   41 1   
    12    6   42 1   
    13    7    8 1   
    14    7   43 1   
    15    7   44 1   
    16    8    9 1   
    17    8   13 1   
    18    8   45 1   
    19    9   12 1   
    20    9   13 1   
    21    9   38 1   
    22   10   12 1   
    23   10   48 1   
    24   11   13 1   
    25   11   47 1   
    26   11   49 1   
    27   12   46 1   
    28   14   15 1   
    29   14   19 1   
    30   15   72 1   
    31   16   17 1   
    32   16   51 1   
    33   17   18 1   
    34   17   37 1   
    35   17   52 1   
    36   18   19 1   
    37   19   20 1   
    38   19   50 1   
    39   20   23 1   
    40   20   27 1   
    41   21   28 1   
    42   21   53 1   
    43   21   60 1   
    44   22   72 1   
    45   23   24 1   
    46   23   25 1   
    47   23   26 1   
    48   24   54 1   
    49   24   55 1   
    50   24   56 1   
    51   27   57 1   
    52   27   58 1   
    53   27   59 1   
    54   28   29 1   
    55   28   35 1   
    56   29   34 1   
    57   30   33 1   
    58   30   61 1   
    59   30   64 1   
    60   31   32 1   
    61   31   36 1   
    62   31   63 1   
    63   32   34 1   
    64   32   62 1   
    65   35   65 1   
    66   35   66 1   
    67   35   67 1   
    68   37   68 1   
    69   37   69 1   
    70   71   72 1   
@<TRIPOS>SUBSTRUCTURE
     1 712         1 TEMP              0 ****  ****    0 ROOT
