@<TRIPOS>MOLECULE
712
   72    67     1     0     0
SMALL
bcc


@<TRIPOS>ATOM
      1 C         -80.6850   -8.4530 -191.5280 c3        1 712     -0.015000
      2 N         -79.2780   -8.3360 -192.0730 nz        1 712     -0.067000
      3 C1        -80.6890   -9.2600 -190.2200 c2        1 712      0.290000
      4 O         -79.7250  -10.2170 -190.1800 os        1 712     -0.305000
      5 O2        -81.4960   -9.1270 -189.3090 o         1 712     -0.272000
      6 C3        -81.5760   -9.2010 -192.5250 c3        1 712     -0.251000
      7 C4        -81.2860   -7.0520 -191.2670 c3        1 712     -0.142000
      8 C5        -80.4100   -6.1390 -190.4730 c2        1 712     -0.158000
      9 C6        -80.6110   -6.0050 -189.1420 c2        1 712      0.032000
     10 C7        -79.9690   -5.0930 -186.9360 c1        1 712      0.332000
     11 C8        -79.2030   -5.5190 -192.5220 c1        1 712      0.140000
     12 C9        -79.9030   -5.1240 -188.2600 c2        1 712     -0.510000
     13 C10       -79.4250   -5.3880 -191.2310 c2        1 712     -0.420000
     14 C11        64.5300    5.8960  156.8460 c1        1 712     -0.091000
     15 C12        64.3130    4.7260  156.9650 c1        1 712     -0.164000
     16 C13       -78.0070   -9.9330 -187.1980 c1        1 712     -0.108000
     17 C14       -78.7320  -10.4020 -188.0270 c1        1 712     -0.254000
     18 C15        64.6260    7.9340  155.3390 cv        1 712     -0.209000
     19 C16        64.8300    7.2930  156.7220 cy        1 712      0.169000
     20 N17        66.2810    7.6260  156.5140 n3        1 712     -0.860000
     21 N19        62.9440    2.7430  156.9360 nt        1 712     -0.399000
     22 O20        65.1620    2.6080  157.4710 o         1 712     -0.404000
     23 S          67.6120    7.3220  157.3620 s6        1 712      2.853000
     24 C21        68.7720    8.2740  156.5770 c3        1 712     -0.948000
     25 O22        67.4760    7.7250  158.6990 o         1 712     -0.963000
     26 O23        68.0010    5.9590  157.2370 o         1 712     -0.963000
     27 C24        65.9540    8.2150  155.2520 cv        1 712      0.005000
     28 C25        68.0460    3.5340  158.0650 c2        1 712      0.336000
     29 C26        68.3780    3.5900  159.3720 c1        1 712     -0.267000
     30 C27        70.8330    3.8210  166.6310 c2        1 712     -0.469000
     31 C28        70.1550    3.5300  162.4850 c2        1 712      0.154000
     32 C29        68.9280    3.7470  161.9050 c2        1 712     -0.259000
     33 C30        70.5860    3.7440  165.3640 c1        1 712      0.086000
     34 C31        68.6530    3.6630  160.5650 c1        1 712      0.170000
     35 C32        68.9970    3.2140  157.0080 c3        1 712     -0.268000
     36 F          71.2420    3.2030  161.7940 f         1 712     -0.065000
     37 C33       -79.6060  -11.0220 -188.9790 c3        1 712      0.114000
     38 HN1       -78.8790   -9.2740 -192.1880 hn        1 712      0.267000
     39 HN2       -79.2990   -7.8430 -192.9760 hn        1 712      0.267000
     40 H31A      -81.6480   -8.6480 -193.4940 hc        1 712      0.129333
     41 H32       -82.6050   -9.2800 -192.0890 hc        1 712      0.129333
     42 H33       -81.1940  -10.2340 -192.7130 hc        1 712      0.129333
     43 H41       -81.5370   -6.5780 -192.2560 hc        1 712      0.144500
     44 H42       -82.2590   -7.2250 -190.7230 hc        1 712      0.144500
     45 H6        -81.3890   -6.6370 -188.6630 ha        1 712      0.159000
     46 H7        -79.2360   -4.3530 -188.7130 ha        1 712      0.203000
     47 H8        -77.5700   -3.1510 -189.6210 ha        1 712      0.002000
     48 H9        -78.0140   -2.6490 -189.7210 ha        1 712      0.002000
     49 H10       -78.8400   -4.6190 -190.6740 ha        1 712      0.219000
     50 H11        64.3880    7.8790  157.5760 h1        1 712      0.163000
     51 H13       -77.3650   -9.5260 -186.4530 ha        1 712      0.242000
     52 H15        63.7330    8.0780  154.7520 ha        1 712      0.192000
     53 HN19       62.1650    3.2900  156.6680 hn        1 712      0.246000
     54 H211       69.0070    7.9410  155.5350 h1        1 712      0.169667
     55 H212       69.7440    8.2420  157.1370 h1        1 712      0.169667
     56 H213       68.5060    9.3600  156.5070 h1        1 712      0.169667
     57 H241       68.4640   10.0130  153.5440 ha        1 712      0.002000
     58 H242       68.5760    9.7190  154.1440 ha        1 712      0.002000
     59 H243       66.6550    8.7070  154.5800 h4        1 712      0.193000
     60 H25        66.9880    3.7350  157.7680 ha        1 712      0.211000
     61 H27        71.1760    2.9690  167.2470 ha        1 712      0.222000
     62 H29        68.0880    4.0170  162.5760 ha        1 712      0.192000
     63 H30        70.3190    3.6200  163.6240 h4        1 712      0.272000
     64 H31        70.7300    4.7460  167.2290 ha        1 712      0.222000
     65 H321       69.1750    4.1720  156.4310 hc        1 712      0.151333
     66 H322       69.9780    2.8310  157.3820 hc        1 712      0.151333
     67 H323       68.5500    2.4730  156.2920 hc        1 712      0.151333
     68 H331      -80.6270  -11.2010 -188.5410 h1        1 712      0.144000
     69 H332      -79.1680  -11.9820 -189.3800 h1        1 712      0.144000
     70 HN3       -78.7040   -7.7970 -191.4120 hn        1 712      0.267000
     71 H192       62.8340    1.7640  157.0470 hn        1 712      0.246000
     72 C18        64.1720    3.3040  157.1390 c2        1 712      0.431000
@<TRIPOS>BOND
     1    1    2 1   
     2    1    3 1   
     3    1    6 1   
     4    1    7 1   
     5    2   38 1   
     6    2   39 1   
     7    2   70 1   
     8    3    4 1   
     9    3    5 1   
    10    4   37 1   
    11    6   40 1   
    12    6   41 1   
    13    6   42 1   
    14    7    8 1   
    15    7   43 1   
    16    7   44 1   
    17    8    9 1   
    18    8   13 1   
    19    9   12 1   
    20    9   45 1   
    21   10   12 1   
    22   11   13 1   
    23   12   46 1   
    24   13   49 1   
    25   14   15 1   
    26   14   19 1   
    27   15   72 1   
    28   16   17 1   
    29   16   51 1   
    30   17   37 1   
    31   18   19 1   
    32   18   27 1   
    33   18   52 1   
    34   19   20 1   
    35   19   50 1   
    36   20   23 1   
    37   20   27 1   
    38   21   53 1   
    39   21   71 1   
    40   21   72 1   
    41   22   72 1   
    42   23   24 1   
    43   23   25 1   
    44   23   26 1   
    45   24   54 1   
    46   24   55 1   
    47   24   56 1   
    48   27   59 1   
    49   28   29 1   
    50   28   35 1   
    51   28   60 1   
    52   29   34 1   
    53   30   33 1   
    54   30   61 1   
    55   30   64 1   
    56   31   32 1   
    57   31   36 1   
    58   31   63 1   
    59   32   34 1   
    60   32   62 1   
    61   35   65 1   
    62   35   66 1   
    63   35   67 1   
    64   37   68 1   
    65   37   69 1   
    66   47   48 1   
    67   57   58 1   
@<TRIPOS>SUBSTRUCTURE
     1 712         1 TEMP              0 ****  ****    0 ROOT
