@<TRIPOS>MOLECULE
713
   46    48     1     0     0
SMALL
bcc


@<TRIPOS>ATOM
      1 Cl1         0.3740    0.1870    0.3610 cl        1 713     -0.077400
      2 C17         2.0200   -0.1410    0.0730 ca        1 713      0.050400
      3 C19         2.8520   -0.3850    1.1620 ca        1 713     -0.154000
      4 C20         4.2180   -0.6540    0.9350 ca        1 713      0.192900
      5 F21         5.0320   -0.8930    1.9810 f         1 713     -0.098900
      6 C22         4.7310   -0.6710   -0.3780 ca        1 713     -0.159000
      7 C23         3.8790   -0.4240   -1.4480 ca        1 713     -0.056000
      8 C16         2.5190   -0.1620   -1.2410 ca        1 713     -0.198300
      9 C15         1.6240    0.0100   -2.4200 c3        1 713      0.176100
     10 N14         1.0580    1.3950   -2.4910 ny        1 713     -0.683800
     11 C13         0.1910    1.6270   -3.7180 c         1 713      0.573700
     12 O24        -0.1300    0.6250   -4.3410 o         1 713     -0.423100
     13 C12        -0.1260    3.0220   -4.0160 ca        1 713     -0.208600
     14 C25        -0.4910    3.3180   -5.3410 ca        1 713     -0.070500
     15 C26        -0.8040    4.6270   -5.7000 ca        1 713     -0.103000
     16 C11        -0.0990    4.0440   -3.0530 ca        1 713     -0.070500
     17 C10        -0.4160    5.3460   -3.4200 ca        1 713     -0.103000
     18 C9         -0.7640    5.6470   -4.7450 ca        1 713     -0.020300
     19 C8         -1.1140    7.0590   -5.1340 c3        1 713      0.094600
     20 N4         -0.0980    7.7080   -5.9320 na        1 713      0.062400
     21 N3          0.4020    7.1730   -7.0620 nc        1 713     -0.534800
     22 C2          1.3050    8.0650   -7.5560 cd        1 713      0.333600
     23 C1          2.0780    7.8910   -8.8000 c3        1 713     -0.127400
     24 C7          1.3790    9.2240   -6.6870 cd        1 713     -0.285300
     25 C5          0.4700    8.9720   -5.6520 cc        1 713     -0.082600
     26 C6          0.1260    9.8190   -4.5000 c3        1 713     -0.038800
     27 H1          2.4610   -0.3800    2.1930 ha        1 713      0.189000
     28 H2          5.7990   -0.8850   -0.5430 ha        1 713      0.181000
     29 H3          4.2850   -0.4520   -2.4730 ha        1 713      0.156000
     30 H4          2.1790   -0.1820   -3.3840 hx        1 713      0.121200
     31 H5          0.7550   -0.7120   -2.3690 hx        1 713      0.121200
     32 H6          0.4870    1.5620   -1.6500 hn        1 713      0.459800
     33 H7         -0.5270    2.5130   -6.0950 ha        1 713      0.148500
     34 H8         -1.0720    4.8600   -6.7470 ha        1 713      0.175000
     35 H9          0.1490    3.8430   -2.0000 ha        1 713      0.148500
     36 H10        -0.3930    6.1470   -2.6620 ha        1 713      0.175000
     37 H11        -1.2760    7.6860   -4.2110 h1        1 713      0.081200
     38 H12        -2.0820    7.0320   -5.7210 h1        1 713      0.081200
     39 H13         2.4280    6.8360   -8.9230 hc        1 713      0.055700
     40 H14         1.4440    8.1570   -9.6840 hc        1 713      0.055700
     41 H15         2.9690    8.5660   -8.7840 hc        1 713      0.055700
     42 H16         2.0060   10.0970   -6.8270 ha        1 713      0.175000
     43 H17        -0.9580   10.0970   -4.5140 hc        1 713      0.057367
     44 H18         0.7320   10.7590   -4.5410 hc        1 713      0.057367
     45 H19         0.3470    9.2990   -3.5340 hc        1 713      0.057367
     46 H142        1.8220    2.0790   -2.4970 hn        1 713      0.459800
@<TRIPOS>BOND
     1    1    2 1   
     2    2    3 ar  
     3    2    8 ar  
     4    3    4 ar  
     5    3   27 1   
     6    4    5 1   
     7    4    6 ar  
     8    6    7 ar  
     9    6   28 1   
    10    7    8 ar  
    11    7   29 1   
    12    8    9 1   
    13    9   10 1   
    14    9   30 1   
    15    9   31 1   
    16   10   11 1   
    17   10   32 1   
    18   10   46 1   
    19   11   12 2   
    20   11   13 1   
    21   13   14 ar  
    22   13   16 ar  
    23   14   15 ar  
    24   14   33 1   
    25   15   18 ar  
    26   15   34 1   
    27   16   17 ar  
    28   16   35 1   
    29   17   18 ar  
    30   17   36 1   
    31   18   19 1   
    32   19   20 1   
    33   19   37 1   
    34   19   38 1   
    35   20   21 1   
    36   20   25 1   
    37   21   22 2   
    38   22   23 1   
    39   22   24 1   
    40   23   39 1   
    41   23   40 1   
    42   23   41 1   
    43   24   25 2   
    44   24   42 1   
    45   25   26 1   
    46   26   43 1   
    47   26   44 1   
    48   26   45 1   
@<TRIPOS>SUBSTRUCTURE
     1 713         1 TEMP              0 ****  ****    0 ROOT
