@<TRIPOS>MOLECULE
713
   46    48     1     0     0
SMALL
bcc


@<TRIPOS>ATOM
      1 CL1         0.3900    0.1860    0.3640 cl        1 713     -0.077400
      2 C17         2.0370   -0.1360    0.0750 ca        1 713      0.050400
      3 C19         2.8700   -0.3760    1.1640 ca        1 713     -0.154000
      4 C20         4.2370   -0.6400    0.9360 ca        1 713      0.192900
      5 F21         5.0530   -0.8750    1.9820 f         1 713     -0.098900
      6 C22         4.7490   -0.6550   -0.3760 ca        1 713     -0.159000
      7 C23         3.8970   -0.4130   -1.4460 ca        1 713     -0.056000
      8 C16         2.5360   -0.1550   -1.2390 ca        1 713     -0.198300
      9 C15         1.6390    0.0120   -2.4170 c3        1 713      0.176100
     10 N14         1.0680    1.3950   -2.4900 n4        1 713     -0.683800
     11 C13         0.1990    1.6220   -3.7160 c         1 713      0.573700
     12 O24        -0.1180    0.6190   -4.3390 o         1 713     -0.423100
     13 C12        -0.1240    3.0160   -4.0140 ca        1 713     -0.208600
     14 C25        -0.4900    3.3100   -5.3400 ca        1 713     -0.070500
     15 C26        -0.8080    4.6170   -5.6990 ca        1 713     -0.103000
     16 C11        -0.1010    4.0380   -3.0520 ca        1 713     -0.070500
     17 C10        -0.4240    5.3400   -3.4190 ca        1 713     -0.103000
     18 C9         -0.7730    5.6380   -4.7440 ca        1 713     -0.020300
     19 C8         -1.1290    7.0480   -5.1340 c3        1 713      0.094600
     20 N4         -0.1150    7.7010   -5.9330 na        1 713      0.062400
     21 N3          0.3850    7.1670   -7.0630 nc        1 713     -0.534800
     22 C2          1.2840    8.0630   -7.5590 cd        1 713      0.333600
     23 C1          2.0570    7.8910   -8.8030 c3        1 713     -0.127400
     24 C7          1.3540    9.2230   -6.6900 cd        1 713     -0.285300
     25 C5          0.4470    8.9680   -5.6540 cc        1 713     -0.082600
     26 C6          0.1010    9.8140   -4.5020 c3        1 713     -0.038800
     27 H1          2.4800   -0.3710    2.1960 ha        1 713      0.189000
     28 H2          5.8190   -0.8660   -0.5430 ha        1 713      0.181000
     29 H3          4.3020   -0.4400   -2.4720 ha        1 713      0.156000
     30 H4          0.7730   -0.7140   -2.3660 hx        1 713      0.121200
     31 H5          2.1950   -0.1790   -3.3820 hx        1 713      0.121200
     32 H6          1.8290    2.0820   -2.4970 hn        1 713      0.459800
     33 H7         -0.5230    2.5040   -6.0930 ha        1 713      0.148500
     34 H8         -1.0780    4.8490   -6.7460 ha        1 713      0.175000
     35 H9          0.1480    3.8390   -1.9990 ha        1 713      0.148500
     36 H10        -0.4030    6.1400   -2.6620 ha        1 713      0.175000
     37 H11        -1.2920    7.6750   -4.2110 h1        1 713      0.081200
     38 H12        -2.0960    7.0170   -5.7200 h1        1 713      0.081200
     39 H13         2.4100    6.8380   -8.9270 hc        1 713      0.055700
     40 H14         2.9460    8.5690   -8.7880 hc        1 713      0.055700
     41 H15         1.4210    8.1560   -9.6860 hc        1 713      0.055700
     42 H16         1.9770   10.0990   -6.8310 ha        1 713      0.175000
     43 H17         0.7030   10.7560   -4.5440 hc        1 713      0.057367
     44 H18         0.3250    9.2940   -3.5360 hc        1 713      0.057367
     45 H19        -0.9850   10.0880   -4.5160 hc        1 713      0.057367
     46 H142        0.4970    1.5600   -1.6480 hn        1 713      0.459800
@<TRIPOS>BOND
     1    1    2 1   
     2    2    3 ar  
     3    2    8 ar  
     4    3    4 ar  
     5    3   27 1   
     6    4    5 1   
     7    4    6 ar  
     8    6    7 ar  
     9    6   28 1   
    10    7    8 ar  
    11    7   29 1   
    12    8    9 1   
    13    9   10 1   
    14    9   30 1   
    15    9   31 1   
    16   10   11 1   
    17   10   32 1   
    18   10   46 1   
    19   11   12 2   
    20   11   13 1   
    21   13   14 ar  
    22   13   16 ar  
    23   14   15 ar  
    24   14   33 1   
    25   15   18 ar  
    26   15   34 1   
    27   16   17 ar  
    28   16   35 1   
    29   17   18 ar  
    30   17   36 1   
    31   18   19 1   
    32   19   20 1   
    33   19   37 1   
    34   19   38 1   
    35   20   21 1   
    36   20   25 1   
    37   21   22 2   
    38   22   23 1   
    39   22   24 1   
    40   23   39 1   
    41   23   40 1   
    42   23   41 1   
    43   24   25 2   
    44   24   42 1   
    45   25   26 1   
    46   26   43 1   
    47   26   44 1   
    48   26   45 1   
@<TRIPOS>SUBSTRUCTURE
     1 713         1 TEMP              0 ****  ****    0 ROOT
