@<TRIPOS>MOLECULE
714
   49    49     1     0     0
SMALL
bcc


@<TRIPOS>ATOM
      1 O1          0.6830   -3.8710   -0.6420 o         1 714     -1.221000
      2 P1          1.4820   -2.7870   -0.0060 p3        1 714      2.558000
      3 O3          1.4730   -2.7370    1.4880 o         1 714     -1.221000
      4 O2          2.8110   -2.4890   -0.6300 o         1 714     -1.221000
      5 C1          0.4720   -0.8980   -0.6360 c2        1 714     -1.457000
      6 P2         -1.0480   -0.4680   -0.9140 p5        1 714      2.122000
      7 O4         -0.8700    1.2800   -0.8640 os        1 714     -0.739000
      8 O5         -1.5640   -0.6520   -2.2980 o         1 714     -0.926000
      9 O6         -2.0670   -0.5630    0.1820 o         1 714     -0.926000
     10 C2          1.2020   -0.2200    0.4470 c3        1 714      0.034000
     11 N1          1.0600    1.2500    0.5190 n3        1 714     -0.260000
     12 C7         -0.3390    1.7150    0.3330 c3        1 714      0.227000
     13 C6         -0.4270    3.2340    0.4430 c2        1 714     -0.056000
     14 C5          0.6610    4.0450    0.3900 c2        1 714     -0.129000
     15 C4          1.9700    3.4710    0.3120 c2        1 714     -0.417000
     16 C3          2.0970    2.0940    0.3350 c2        1 714      0.066000
     17 O7         -1.6600    3.8330    0.6870 os        1 714     -0.267000
     18 C8         -2.7660    3.3180   -0.0590 c3        1 714     -0.015000
     19 C9         -3.5880    2.3800    0.8080 c3        1 714     -0.198000
     20 C10        -4.7940    1.8490    0.0610 c3        1 714     -0.126000
     21 C11        -5.1170    0.4410    0.5140 c3        1 714     -0.198000
     22 C12        -6.2420   -0.1620   -0.2950 c3        1 714     -0.140000
     23 C13        -6.4700   -1.6070    0.0960 c3        1 714     -0.163000
     24 C14        -7.5600   -2.2460   -0.7400 c3        1 714     -0.156000
     25 C15        -7.7810   -3.6860   -0.3540 c3        1 714     -0.206000
     26 H1          1.0620   -1.0230   -1.5600 ha        1 714      0.133000
     27 H2          0.8370   -0.6020    1.4510 h1        1 714      0.101000
     28 H2A         2.3080   -0.4500    0.3830 h1        1 714      0.101000
     29 H7         -0.9200    1.2400    1.1910 h2        1 714      0.095000
     30 H5          0.5630    5.1370    0.4500 ha        1 714      0.072000
     31 H4          2.8450    4.1170    0.2350 ha        1 714      0.081000
     32 H3          3.1010    1.6290    0.2790 h4        1 714      0.110000
     33 H8         -3.3620    4.2340   -0.3280 h1        1 714      0.085000
     34 H8A        -2.4200    2.7910   -0.9880 h1        1 714      0.085000
     35 H9         -2.9260    1.5090    1.0970 hc        1 714      0.106000
     36 H9A        -3.9070    2.9020    1.7450 hc        1 714      0.106000
     37 H10        -5.6790    2.5240    0.2140 hc        1 714      0.047000
     38 H10A       -4.5750    1.8300   -1.0400 hc        1 714      0.047000
     39 H11        -4.1720   -0.1880    0.4020 hc        1 714      0.131500
     40 H11A       -5.3940    0.4450    1.6000 hc        1 714      0.131500
     41 H12        -7.1900    0.4230   -0.1500 hc        1 714      0.053000
     42 H12A       -5.9810   -0.1100   -1.3850 hc        1 714      0.053000
     43 H13        -5.5070   -2.1720   -0.0360 hc        1 714      0.095000
     44 H13A       -6.7460   -1.6670    1.1810 hc        1 714      0.095000
     45 H14        -8.5170   -1.6720   -0.6180 hc        1 714      0.062000
     46 H14A       -7.2750   -2.1880   -1.8230 hc        1 714      0.062000
     47 H15        -8.5760   -4.1480   -0.9900 hc        1 714      0.060333
     48 H15A       -6.8380   -4.2710   -0.4840 hc        1 714      0.060333
     49 H15B       -8.0960   -3.7640    0.7150 hc        1 714      0.060333
@<TRIPOS>BOND
     1    1    2 1   
     2    2    3 1   
     3    2    4 1   
     4    5    6 1   
     5    5   10 1   
     6    5   26 1   
     7    6    7 1   
     8    6    8 1   
     9    6    9 1   
    10    7   12 1   
    11   10   11 1   
    12   10   27 1   
    13   10   28 1   
    14   11   12 1   
    15   11   16 1   
    16   12   13 1   
    17   12   29 1   
    18   13   14 1   
    19   13   17 1   
    20   14   15 1   
    21   14   30 1   
    22   15   16 1   
    23   15   31 1   
    24   16   32 1   
    25   17   18 1   
    26   18   19 1   
    27   18   33 1   
    28   18   34 1   
    29   19   20 1   
    30   19   35 1   
    31   19   36 1   
    32   20   21 1   
    33   20   37 1   
    34   20   38 1   
    35   21   22 1   
    36   21   39 1   
    37   21   40 1   
    38   22   23 1   
    39   22   41 1   
    40   22   42 1   
    41   23   24 1   
    42   23   43 1   
    43   23   44 1   
    44   24   25 1   
    45   24   45 1   
    46   24   46 1   
    47   25   47 1   
    48   25   48 1   
    49   25   49 1   
@<TRIPOS>SUBSTRUCTURE
     1 714         1 TEMP              0 ****  ****    0 ROOT
