@<TRIPOS>MOLECULE
714
   49    49     1     0     0
SMALL
bcc


@<TRIPOS>ATOM
      1 O1          0.8980    5.8100    1.5310 o         1 714     -1.221000
      2 P1          1.6440    4.5520    1.2450 p3        1 714      2.558000
      3 O3          2.7240    4.1810    2.2100 o         1 714     -1.221000
      4 O2          0.8310    3.3970    0.7480 o         1 714     -1.221000
      5 C1          2.7180    4.9560   -0.6700 c2        1 714     -1.457000
      6 P2          3.4020    6.2480   -1.3310 p5        1 714      2.122000
      7 O4          4.3790    5.4620   -2.5630 os        1 714     -0.739000
      8 O5          2.5380    7.1140   -2.1790 o         1 714     -0.926000
      9 O6          4.5350    6.9370   -0.6330 o         1 714     -0.926000
     10 C2          3.5690    3.7960   -0.3640 c3        1 714      0.034000
     11 N1          4.5340    3.3910   -1.4110 n3        1 714     -0.260000
     12 C7          5.2510    4.5390   -2.0230 c3        1 714      0.227000
     13 C6          6.2470    4.0580   -3.0740 c2        1 714     -0.056000
     14 C5          6.2330    2.8030   -3.5910 c2        1 714     -0.129000
     15 C4          5.3030    1.8390   -3.0840 c2        1 714     -0.417000
     16 C3          4.4660    2.2020   -2.0450 c2        1 714      0.066000
     17 O7          7.2760    4.9040   -3.4790 os        1 714     -0.267000
     18 C8          6.9120    6.2660   -3.7170 c3        1 714     -0.015000
     19 C9          7.3130    7.1290   -2.5330 c3        1 714     -0.198000
     20 C10         6.9810    8.5870   -2.7710 c3        1 714     -0.126000
     21 C11         6.6120    9.2630   -1.4670 c3        1 714     -0.198000
     22 C12         6.1600   10.6900   -1.6850 c3        1 714     -0.140000
     23 C13         5.6870   11.3070   -0.3870 c3        1 714     -0.163000
     24 C14         5.1810   12.7200   -0.5920 c3        1 714     -0.156000
     25 C15         4.7050   13.3320    0.7000 c3        1 714     -0.206000
     26 H1          1.7540    4.6900   -1.1360 ha        1 714      0.133000
     27 H2          4.2020    4.0160    0.5510 h1        1 714      0.101000
     28 H2A         2.9340    2.8910   -0.1220 h1        1 714      0.101000
     29 H7          5.8160    5.0230   -1.1600 h2        1 714      0.095000
     30 H5          6.9500    2.4940   -4.3620 ha        1 714      0.072000
     31 H4          5.2630    0.8390   -3.5190 ha        1 714      0.081000
     32 H3          3.7420    1.4700   -1.6350 h4        1 714      0.110000
     33 H8          5.8110    6.3640   -3.9170 h1        1 714      0.085000
     34 H8A         7.5020    6.5500   -4.6330 h1        1 714      0.085000
     35 H9          8.4060    7.0070   -2.3210 hc        1 714      0.106000
     36 H9A         6.7360    6.7660   -1.6310 hc        1 714      0.106000
     37 H10         6.1080    8.6630   -3.4730 hc        1 714      0.047000
     38 H10A        7.8460    9.1130   -3.2560 hc        1 714      0.047000
     39 H11         7.4900    9.2490   -0.7710 hc        1 714      0.131500
     40 H11A        5.7770    8.6570   -0.9820 hc        1 714      0.131500
     41 H12         5.3180   10.6990   -2.4280 hc        1 714      0.053000
     42 H12A        6.9940   11.3060   -2.1170 hc        1 714      0.053000
     43 H13         6.5270   11.3150    0.3560 hc        1 714      0.095000
     44 H13A        4.8690   10.6660    0.0410 hc        1 714      0.095000
     45 H14         5.9960   13.3540   -1.0320 hc        1 714      0.062000
     46 H14A        4.3380   12.7040   -1.3330 hc        1 714      0.062000
     47 H15         5.5380   13.3840    1.4420 hc        1 714      0.060333
     48 H15A        4.3200   14.3660    0.5290 hc        1 714      0.060333
     49 H15B        3.8840   12.7150    1.1410 hc        1 714      0.060333
@<TRIPOS>BOND
     1    1    2 1   
     2    2    3 1   
     3    2    4 1   
     4    5    6 1   
     5    5   10 1   
     6    5   26 1   
     7    6    7 1   
     8    6    8 1   
     9    6    9 1   
    10    7   12 1   
    11   10   11 1   
    12   10   27 1   
    13   10   28 1   
    14   11   12 1   
    15   11   16 1   
    16   12   13 1   
    17   12   29 1   
    18   13   14 1   
    19   13   17 1   
    20   14   15 1   
    21   14   30 1   
    22   15   16 1   
    23   15   31 1   
    24   16   32 1   
    25   17   18 1   
    26   18   19 1   
    27   18   33 1   
    28   18   34 1   
    29   19   20 1   
    30   19   35 1   
    31   19   36 1   
    32   20   21 1   
    33   20   37 1   
    34   20   38 1   
    35   21   22 1   
    36   21   39 1   
    37   21   40 1   
    38   22   23 1   
    39   22   41 1   
    40   22   42 1   
    41   23   24 1   
    42   23   43 1   
    43   23   44 1   
    44   24   25 1   
    45   24   45 1   
    46   24   46 1   
    47   25   47 1   
    48   25   48 1   
    49   25   49 1   
@<TRIPOS>SUBSTRUCTURE
     1 714         1 TEMP              0 ****  ****    0 ROOT
