@<TRIPOS>MOLECULE
714
   49    49     1     0     0
SMALL
bcc


@<TRIPOS>ATOM
      1 O1          0.9090    5.8610    1.5700 o         1 714     -1.221000
      2 P1          1.6520    4.5980    1.2990 p3        1 714      2.558000
      3 O3          2.7360    4.2390    2.2640 o         1 714     -1.221000
      4 O2          0.8340    3.4370    0.8220 o         1 714     -1.221000
      5 C1          2.7180    4.9710   -0.6270 c2        1 714     -1.457000
      6 P2          3.4010    6.2520   -1.3100 p5        1 714      2.122000
      7 O4          4.3710    5.4460   -2.5340 os        1 714     -0.739000
      8 O5          2.5340    7.1080   -2.1670 o         1 714     -0.926000
      9 O6          4.5380    6.9490   -0.6280 o         1 714     -0.926000
     10 C2          3.5680    3.8140   -0.3080 c3        1 714      0.034000
     11 N1          4.5270    3.3920   -1.3530 n3        1 714     -0.260000
     12 C7          5.2440    4.5300   -1.9860 c3        1 714      0.227000
     13 C6          6.2350    4.0320   -3.0330 c2        1 714     -0.056000
     14 C5          6.2160    2.7690   -3.5310 c2        1 714     -0.129000
     15 C4          5.2870    1.8140   -3.0060 c2        1 714     -0.417000
     16 C3          4.4550    2.1940   -1.9690 c2        1 714      0.066000
     17 O7          7.2630    4.8700   -3.4560 os        1 714     -0.267000
     18 C8          6.9000    6.2290   -3.7120 c3        1 714     -0.015000
     19 C9          7.3080    7.1080   -2.5430 c3        1 714     -0.198000
     20 C10         6.9760    8.5640   -2.8010 c3        1 714     -0.126000
     21 C11         6.6150    9.2590   -1.5060 c3        1 714     -0.198000
     22 C12         6.1640   10.6830   -1.7430 c3        1 714     -0.140000
     23 C13         5.6990   11.3210   -0.4510 c3        1 714     -0.163000
     24 C14         5.1940   12.7310   -0.6750 c3        1 714     -0.156000
     25 C15         4.7250   13.3630    0.6100 c3        1 714     -0.206000
     26 H1          1.7510    4.7000   -1.0850 ha        1 714      0.133000
     27 H2          4.2060    4.0470    0.6010 h1        1 714      0.101000
     28 H2A         2.9330    2.9140   -0.0500 h1        1 714      0.101000
     29 H7          5.8140    5.0260   -1.1320 h2        1 714      0.095000
     30 H5          6.9290    2.4480   -4.3010 ha        1 714      0.072000
     31 H4          5.2430    0.8090   -3.4260 ha        1 714      0.081000
     32 H3          3.7320    1.4700   -1.5450 h4        1 714      0.110000
     33 H8          5.7980    6.3250   -3.9090 h1        1 714      0.085000
     34 H8A         7.4860    6.4980   -4.6350 h1        1 714      0.085000
     35 H9          8.4010    6.9880   -2.3340 hc        1 714      0.106000
     36 H9A         6.7340    6.7600   -1.6330 hc        1 714      0.106000
     37 H10         6.1000    8.6300   -3.5000 hc        1 714      0.047000
     38 H10A        7.8400    9.0810   -3.2980 hc        1 714      0.047000
     39 H11         7.4970    9.2540   -0.8130 hc        1 714      0.131500
     40 H11A        5.7820    8.6620   -1.0080 hc        1 714      0.131500
     41 H12         5.3190   10.6830   -2.4810 hc        1 714      0.053000
     42 H12A        6.9970   11.2910   -2.1880 hc        1 714      0.053000
     43 H13         6.5430   11.3380    0.2880 hc        1 714      0.095000
     44 H13A        4.8820   10.6880   -0.0100 hc        1 714      0.095000
     45 H14         6.0070   13.3580   -1.1280 hc        1 714      0.062000
     46 H14A        4.3470   12.7060   -1.4110 hc        1 714      0.062000
     47 H15         5.5620   13.4250    1.3470 hc        1 714      0.060333
     48 H15A        4.3410   14.3950    0.4260 hc        1 714      0.060333
     49 H15B        3.9060   12.7540    1.0650 hc        1 714      0.060333
@<TRIPOS>BOND
     1    1    2 1   
     2    2    3 1   
     3    2    4 1   
     4    5    6 1   
     5    5   10 1   
     6    5   26 1   
     7    6    7 1   
     8    6    8 1   
     9    6    9 1   
    10    7   12 1   
    11   10   11 1   
    12   10   27 1   
    13   10   28 1   
    14   11   12 1   
    15   11   16 1   
    16   12   13 1   
    17   12   29 1   
    18   13   14 1   
    19   13   17 1   
    20   14   15 1   
    21   14   30 1   
    22   15   16 1   
    23   15   31 1   
    24   16   32 1   
    25   17   18 1   
    26   18   19 1   
    27   18   33 1   
    28   18   34 1   
    29   19   20 1   
    30   19   35 1   
    31   19   36 1   
    32   20   21 1   
    33   20   37 1   
    34   20   38 1   
    35   21   22 1   
    36   21   39 1   
    37   21   40 1   
    38   22   23 1   
    39   22   41 1   
    40   22   42 1   
    41   23   24 1   
    42   23   43 1   
    43   23   44 1   
    44   24   25 1   
    45   24   45 1   
    46   24   46 1   
    47   25   47 1   
    48   25   48 1   
    49   25   49 1   
@<TRIPOS>SUBSTRUCTURE
     1 714         1 TEMP              0 ****  ****    0 ROOT
