@<TRIPOS>MOLECULE
714
   49    47     1     0     0
SMALL
bcc


@<TRIPOS>ATOM
      1 O1          2.9320   -6.4730   -1.5730 o         1 714     -0.757167
      2 P1          2.5520   -5.0060   -1.7360 p5        1 714      1.541000
      3 O3          2.6970   -4.2980   -0.4110 o         1 714     -0.757167
      4 O2          3.4610   -4.3610   -2.7520 o         1 714     -0.757167
      5 C1          0.8030   -4.8820   -2.3100 c3        1 714     -0.681000
      6 P2          0.5670   -5.9380   -3.7910 p5        1 714      1.541000
      7 O4         -0.6790   -5.4920   -4.5390 o         1 714     -0.757167
      8 O5          1.7770   -5.8110   -4.7020 o         1 714     -0.757167
      9 O6          0.4100   -7.3520   -3.3720 o         1 714     -0.757167
     10 C2         -0.1370   -5.3520   -1.1890 c3        1 714     -0.076000
     11 N1         -1.0970   -4.2940   -0.8810 n3        1 714     -0.096000
     12 C7         -0.7410   -3.2730   -0.0670 c2        1 714     -0.304000
     13 C6         -1.6830   -2.3300    0.3120 c1        1 714      0.098000
     14 C5         -2.9600   -2.4320   -0.1350 c2        1 714     -0.485000
     15 C4         -3.3150   -3.4570   -0.9510 c1        1 714     -0.057000
     16 C3         -2.3790   -4.3940   -1.3280 c1        1 714     -0.304000
     17 O7         -1.3060   -1.2420    1.1700 o         1 714     -0.266000
     18 C8         -1.2480    0.0320    0.5090 c3        1 714      0.001000
     19 C9         -0.8260    1.1030    1.5170 c3        1 714     -0.205000
     20 C10        -0.2800    2.3090    0.7760 c3        1 714     -0.135000
     21 C11        -0.0900    3.4530    1.7460 c3        1 714     -0.192000
     22 C12         0.5320    4.6540    1.0080 c3        1 714     -0.140000
     23 C13         0.8610    5.7680    2.0280 c3        1 714     -0.166000
     24 C14         1.5540    6.9210    1.3140 c3        1 714     -0.156000
     25 C15         1.8700    8.0230    2.3140 c3        1 714     -0.207000
     26 H1          0.6010   -3.9640   -2.5340 hc        1 714      0.109000
     27 H2          0.3890   -5.5600   -0.3870 h1        1 714      0.055500
     28 H2A        -0.6240   -6.1640   -1.4840 h1        1 714      0.055500
     29 H7          0.2110   -3.1890    0.2480 h4        1 714      0.108000
     30 H5         -3.6330   -1.7610    0.1350 ha        1 714      0.080000
     31 H4         -4.2520   -3.5320   -1.2790 ha        1 714      0.051000
     32 H3         -2.6380   -5.1360   -1.9200 ha        1 714      0.086000
     33 H8         -2.1420    0.2560    0.1410 h1        1 714      0.052500
     34 H8A        -0.5810   -0.0070   -0.2340 h1        1 714      0.052500
     35 H9         -0.1310    0.7410    2.1080 hc        1 714      0.109500
     36 H9A        -1.6010    1.3700    2.0520 hc        1 714      0.109500
     37 H10        -0.9110    2.5760    0.0750 hc        1 714      0.049500
     38 H10A        0.6010    2.0750    0.3610 hc        1 714      0.049500
     39 H11         0.4910    3.1780    2.4520 hc        1 714      0.124500
     40 H11A       -0.9570    3.7110    2.1190 hc        1 714      0.124500
     41 H12        -0.1130    5.0000    0.3330 hc        1 714      0.053500
     42 H12A        1.3550    4.3710    0.5580 hc        1 714      0.053500
     43 H13         0.0220    6.0940    2.4440 hc        1 714      0.097000
     44 H13A        1.4720    5.3990    2.7440 hc        1 714      0.097000
     45 H14         2.3860    6.5990    0.9080 hc        1 714      0.063500
     46 H14A        0.9680    7.2730    0.6180 hc        1 714      0.063500
     47 H15         1.0220    8.3950    2.6780 hc        1 714      0.062667
     48 H15A        2.3820    8.7440    1.8600 hc        1 714      0.062667
     49 H15B        2.4060    7.6540    3.0470 hc        1 714      0.062667
@<TRIPOS>BOND
     1    1    2 1   
     2    2    3 1   
     3    2    4 1   
     4    2    5 1   
     5    5    6 1   
     6    5   10 1   
     7    5   26 1   
     8    6    7 1   
     9    6    8 1   
    10    6    9 1   
    11   10   11 1   
    12   10   27 1   
    13   10   28 1   
    14   11   12 1   
    15   11   16 1   
    16   12   13 1   
    17   12   29 1   
    18   13   14 1   
    19   14   15 1   
    20   14   30 1   
    21   15   31 1   
    22   16   32 1   
    23   17   18 1   
    24   18   19 1   
    25   18   33 1   
    26   18   34 1   
    27   19   20 1   
    28   19   35 1   
    29   19   36 1   
    30   20   21 1   
    31   20   37 1   
    32   20   38 1   
    33   21   22 1   
    34   21   39 1   
    35   21   40 1   
    36   22   23 1   
    37   22   41 1   
    38   22   42 1   
    39   23   24 1   
    40   23   43 1   
    41   23   44 1   
    42   24   25 1   
    43   24   45 1   
    44   24   46 1   
    45   25   47 1   
    46   25   48 1   
    47   25   49 1   
@<TRIPOS>SUBSTRUCTURE
     1 714         1 TEMP              0 ****  ****    0 ROOT
