@<TRIPOS>MOLECULE
715
   43    40     1     0     0
SMALL
bcc


@<TRIPOS>ATOM
      1 C1         -5.9700   -0.9470   -2.4610 c1        1 715     -0.151500
      2 C2         -4.6200   -0.7220   -2.5390 c1        1 715      0.124000
      3 C3         -3.9840    0.0750   -1.5760 c1        1 715     -0.076000
      4 C4         -4.7120    0.6280   -0.5580 c1        1 715     -0.151500
      5 C5         -6.0760    0.4000   -0.4800 c1        1 715      0.065500
      6 C6         -6.7040   -0.3940   -1.4410 c1        1 715      0.065500
      7 F9         -6.7980    0.9880    0.4820 f         1 715     -0.087000
      8 F10        -3.9270   -1.1750   -3.6030 f         1 715     -0.099000
      9 C11        -2.5170    0.4020   -1.7180 c3        1 715     -0.122000
     10 C12        -1.7260   -0.3800   -0.7370 c3        1 715     -0.002000
     11 C15        -0.2640    0.2070   -0.6540 c3        1 715     -0.228000
     12 C16         0.3490   -0.1190    0.7420 c2        1 715      0.307000
     13 N19         1.5620    0.4690    1.1330 n         1 715     -0.332000
     14 N20        -1.6750   -1.7660   -1.1540 n3        1 715     -0.349000
     15 O22        -0.2020   -0.9330    1.4790 o         1 715     -0.355000
     16 C25         2.1500    0.1420    2.3540 c3        1 715     -0.049000
     17 C26         3.5310   -0.2740    2.3160 c3        1 715     -0.059000
     18 N27         4.4080    0.4220    1.3120 n3        1 715     -0.125000
     19 C28         3.7670    1.3140    0.3630 c1        1 715     -0.145000
     20 C29         2.1770    1.3590    0.3530 c2        1 715      0.045000
     21 C39         5.6910    0.3710    1.0150 c1        1 715     -0.145000
     22 N40         5.9140    1.2060   -0.1030 n2        1 715     -0.040500
     23 N41         4.6990    1.7670   -0.4700 n2        1 715     -0.040500
     24 C42         6.7350   -0.4350    1.7380 c2        1 715      0.526000
     25 F43         6.7540   -0.0590    3.1180 f         1 715     -0.148667
     26 F44         6.4390   -1.7740    1.6310 f         1 715     -0.148667
     27 F45         7.9890   -0.1860    1.1680 f         1 715     -0.148667
     28 F46        -8.0340   -0.6820   -1.3310 f         1 715     -0.087000
     29 H1         -6.4240   -1.5220   -3.1560 ha        1 715      0.163000
     30 H4         -4.2680    1.1850    0.1150 ha        1 715      0.163000
     31 H111       -2.2080    0.1640   -2.6670 hc        1 715      0.096500
     32 H112       -2.3800    1.3480   -1.5630 hc        1 715      0.096500
     33 H12        -2.1310   -0.3220    0.1070 h1        1 715      0.115000
     34 H151        0.2980   -0.2010   -1.3690 hc        1 715      0.114000
     35 H152       -0.2930    1.2080   -0.7820 hc        1 715      0.114000
     36 H201       -1.4990   -2.3030   -0.4250 hn        1 715      0.164500
     37 H202       -1.0420   -1.8690   -1.7560 hn        1 715      0.164500
     38 H251        2.1150    0.9090    2.8910 h1        1 715      0.128000
     39 H252        1.5970   -0.6680    2.7490 h1        1 715      0.128000
     40 H261        3.9270   -0.0760    3.2470 h1        1 715      0.125500
     41 H262        3.5350   -1.1900    2.0930 h1        1 715      0.125500
     42 H291        1.9140    2.2470    0.6730 h4        1 715      0.127500
     43 H292        1.9030    1.1840   -0.5340 h4        1 715      0.127500
@<TRIPOS>BOND
     1    1    6 1   
     2    1   29 1   
     3    2    3 1   
     4    2    8 1   
     5    3    9 1   
     6    4    5 1   
     7    4   30 1   
     8    5    7 1   
     9    6   28 1   
    10    9   10 1   
    11    9   31 1   
    12    9   32 1   
    13   10   11 1   
    14   10   14 1   
    15   10   33 1   
    16   11   12 1   
    17   11   34 1   
    18   11   35 1   
    19   12   13 1   
    20   12   15 1   
    21   13   16 1   
    22   13   20 1   
    23   14   36 1   
    24   14   37 1   
    25   16   17 1   
    26   16   38 1   
    27   16   39 1   
    28   17   18 1   
    29   17   40 1   
    30   17   41 1   
    31   18   19 1   
    32   18   21 1   
    33   19   23 1   
    34   20   42 1   
    35   20   43 1   
    36   21   22 1   
    37   22   23 1   
    38   24   25 1   
    39   24   26 1   
    40   24   27 1   
@<TRIPOS>SUBSTRUCTURE
     1 715         1 TEMP              0 ****  ****    0 ROOT
