@<TRIPOS>MOLECULE
715
   44    46     1     0     0
SMALL
bcc


@<TRIPOS>ATOM
      1 C1         -0.1950    0.2080    0.1860 ca        1 715     -0.164000
      2 C2          1.1890    0.0170    0.0650 ca        1 715      0.104900
      3 C3          2.0260   -0.0290    1.2020 ca        1 715     -0.170300
      4 C4          1.4530    0.1060    2.4670 ca        1 715     -0.109000
      5 C5          0.0690    0.2840    2.6160 ca        1 715      0.108900
      6 C6         -0.7640    0.3420    1.4610 ca        1 715      0.155900
      7 F9         -0.4710    0.4070    3.8450 f         1 715     -0.091900
      8 F10         1.7310   -0.1280   -1.1730 f         1 715     -0.151900
      9 C11         3.5020   -0.1300    1.0600 c3        1 715     -0.057100
     10 C12         3.9990   -1.5810    0.9650 c3        1 715      0.141500
     11 C15         5.5280   -1.5830    0.8540 c3        1 715     -0.187400
     12 C16         6.1040   -2.9890    0.9200 c         1 715      0.662100
     13 N19         7.4200   -3.1780    1.2790 n         1 715     -0.432800
     14 N20         3.3420   -2.3040   -0.1760 n4        1 715     -0.846600
     15 O22         5.3490   -3.9690    0.7020 o         1 715     -0.654100
     16 C25         7.9870   -4.5180    1.2890 c3        1 715      0.061000
     17 C26         8.9590   -4.8110    0.1160 c3        1 715      0.005300
     18 N27         9.7610   -3.6670   -0.2160 na        1 715     -0.288700
     19 C28         9.4930   -2.3740    0.2640 cc        1 715      0.313800
     20 C29         8.4020   -2.1070    1.2580 c3        1 715      0.062700
     21 C39        10.8530   -3.5010   -1.0750 cc        1 715      0.283800
     22 N40        11.2000   -2.1720   -1.0840 nd        1 715     -0.263000
     23 N41        10.3960   -1.5030   -0.2940 nd        1 715     -0.308000
     24 C42        11.5080   -4.6280   -1.8640 c3        1 715      0.645600
     25 F43        12.7300   -4.3150   -2.3820 f         1 715     -0.211633
     26 F44        11.7020   -5.7630   -1.1160 f         1 715     -0.211633
     27 F45        10.7450   -5.0380   -2.9270 f         1 715     -0.211633
     28 F46        -2.0910    0.5250    1.5950 f         1 715     -0.085900
     29 H1         -0.8330    0.2650   -0.7120 ha        1 715      0.193000
     30 H4          2.0840    0.0900    3.3720 ha        1 715      0.172000
     31 H111        4.0010    0.3350    1.9550 hc        1 715      0.098200
     32 H112        3.8360    0.4480    0.1540 hc        1 715      0.098200
     33 H12         3.7010   -2.1480    1.9010 hx        1 715      0.124700
     34 H151        5.8640   -1.0940   -0.1000 hc        1 715      0.110700
     35 H152        5.9120   -0.9620    1.7120 hc        1 715      0.110700
     36 H201        3.5500   -1.8330   -1.0610 hn        1 715      0.470467
     37 H202        3.6870   -3.2800   -0.2060 hn        1 715      0.470467
     38 H251        7.1620   -5.2850    1.2500 h1        1 715      0.101200
     39 H252        8.5430   -4.6310    2.2630 h1        1 715      0.101200
     40 H261        8.3760   -5.1220   -0.7990 h1        1 715      0.094700
     41 H262        9.6330   -5.6680    0.4130 h1        1 715      0.094700
     42 H291        8.8700   -2.0430    2.2880 h1        1 715      0.094700
     43 H292        7.9330   -1.1130    1.0190 h1        1 715      0.094700
     44 H203        2.3260   -2.2950   -0.0380 hn        1 715      0.470467
@<TRIPOS>BOND
     1    1    2 ar  
     2    1    6 ar  
     3    1   29 1   
     4    2    3 ar  
     5    2    8 1   
     6    3    4 ar  
     7    3    9 1   
     8    4    5 ar  
     9    4   30 1   
    10    5    6 ar  
    11    5    7 1   
    12    6   28 1   
    13    9   10 1   
    14    9   31 1   
    15    9   32 1   
    16   10   11 1   
    17   10   14 1   
    18   10   33 1   
    19   11   12 1   
    20   11   34 1   
    21   11   35 1   
    22   12   13 1   
    23   12   15 2   
    24   13   16 1   
    25   13   20 1   
    26   14   36 1   
    27   14   37 1   
    28   14   44 1   
    29   16   17 1   
    30   16   38 1   
    31   16   39 1   
    32   17   18 1   
    33   17   40 1   
    34   17   41 1   
    35   18   19 1   
    36   18   21 1   
    37   19   20 1   
    38   19   23 2   
    39   20   42 1   
    40   20   43 1   
    41   21   22 2   
    42   21   24 1   
    43   22   23 1   
    44   24   25 1   
    45   24   26 1   
    46   24   27 1   
@<TRIPOS>SUBSTRUCTURE
     1 715         1 TEMP              0 ****  ****    0 ROOT
