@<TRIPOS>MOLECULE
715
   44    46     1     0     0
SMALL
bcc


@<TRIPOS>ATOM
      1 C1         -0.1960    0.2040    0.1830 ca        1 715     -0.164000
      2 C2          1.1880    0.0150    0.0640 ca        1 715      0.104900
      3 C3          2.0230   -0.0360    1.2040 ca        1 715     -0.170300
      4 C4          1.4460    0.0920    2.4680 ca        1 715     -0.109000
      5 C5          0.0620    0.2690    2.6140 ca        1 715      0.108900
      6 C6         -0.7680    0.3320    1.4580 ca        1 715      0.155900
      7 F9         -0.4810    0.3850    3.8430 f         1 715     -0.091900
      8 F10         1.7330   -0.1240   -1.1730 f         1 715     -0.151900
      9 C11         3.4990   -0.1360    1.0640 c3        1 715     -0.057100
     10 C12         3.9980   -1.5860    0.9630 c3        1 715      0.141500
     11 C15         5.5260   -1.5860    0.8560 c3        1 715     -0.187400
     12 C16         6.1030   -2.9930    0.9160 c         1 715      0.662100
     13 N19         7.4180   -3.1830    1.2780 n         1 715     -0.432800
     14 N20         3.3440   -2.3030   -0.1830 nz        1 715     -0.846600
     15 O22         5.3500   -3.9720    0.6910 o         1 715     -0.654100
     16 C25         7.9860   -4.5220    1.2810 c3        1 715      0.062000
     17 C26         8.9620   -4.8090    0.1100 c3        1 715      0.005300
     18 N27         9.7650   -3.6630   -0.2130 na        1 715     -0.288700
     19 C28         9.4940   -2.3720    0.2730 cc        1 715      0.313800
     20 C29         8.4000   -2.1110    1.2650 c3        1 715      0.062700
     21 C39        10.8600   -3.4910   -1.0670 cc        1 715      0.283800
     22 N40        11.2050   -2.1620   -1.0680 nd        1 715     -0.263000
     23 N41        10.3990   -1.4980   -0.2770 nd        1 715     -0.308000
     24 C42        11.5180   -4.6130   -1.8600 c3        1 715      0.645600
     25 F43        12.7410   -4.2970   -2.3730 f         1 715     -0.211633
     26 F44        11.7100   -5.7520   -1.1170 f         1 715     -0.211633
     27 F45        10.7570   -5.0190   -2.9270 f         1 715     -0.211633
     28 F46        -2.0950    0.5130    1.5890 f         1 715     -0.085900
     29 H1         -0.8310    0.2650   -0.7160 ha        1 715      0.193000
     30 H4          2.0750    0.0720    3.3740 ha        1 715      0.172000
     31 H111        3.9960    0.3250    1.9630 hc        1 715      0.098200
     32 H112        3.8350    0.4470    0.1620 hc        1 715      0.098200
     33 H12         3.6970   -2.1580    1.8950 hx        1 715      0.124700
     34 H151        5.9080   -0.9710    1.7180 hc        1 715      0.110700
     35 H152        5.8650   -1.0930   -0.0950 hc        1 715      0.110700
     36 H201        3.5540   -1.8280   -1.0650 hn        1 715      0.470467
     37 H202        3.6880   -3.2790   -0.2170 hn        1 715      0.470467
     38 H251        8.5400   -4.6410    2.2570 h1        1 715      0.101200
     39 H252        7.1620   -5.2900    1.2360 h1        1 715      0.101200
     40 H261        9.6350   -5.6670    0.4040 h1        1 715      0.094700
     41 H262        8.3820   -5.1140   -0.8080 h1        1 715      0.094700
     42 H291        8.8640   -2.0520    2.2960 h1        1 715      0.094700
     43 H292        7.9300   -1.1160    1.0300 h1        1 715      0.094700
     44 H203        2.3270   -2.2960   -0.0480 hn        1 715      0.470467
@<TRIPOS>BOND
     1    1    2 ar  
     2    1    6 ar  
     3    1   29 1   
     4    2    3 ar  
     5    2    8 1   
     6    3    4 ar  
     7    3    9 1   
     8    4    5 ar  
     9    4   30 1   
    10    5    6 ar  
    11    5    7 1   
    12    6   28 1   
    13    9   10 1   
    14    9   31 1   
    15    9   32 1   
    16   10   11 1   
    17   10   14 1   
    18   10   33 1   
    19   11   12 1   
    20   11   34 1   
    21   11   35 1   
    22   12   13 1   
    23   12   15 2   
    24   13   16 1   
    25   13   20 1   
    26   14   36 1   
    27   14   37 1   
    28   14   44 1   
    29   16   17 1   
    30   16   38 1   
    31   16   39 1   
    32   17   18 1   
    33   17   40 1   
    34   17   41 1   
    35   18   19 1   
    36   18   21 1   
    37   19   20 1   
    38   19   23 2   
    39   20   42 1   
    40   20   43 1   
    41   21   22 2   
    42   21   24 1   
    43   22   23 1   
    44   24   25 1   
    45   24   26 1   
    46   24   27 1   
@<TRIPOS>SUBSTRUCTURE
     1 715         1 TEMP              0 ****  ****    0 ROOT
