@<TRIPOS>MOLECULE
715
   43    45     1     0     0
SMALL
bcc


@<TRIPOS>ATOM
      1 C1          1.6050   -0.1070    6.2090 ca        1 715     -0.183000
      2 C2          1.3750   -0.5070    4.8820 ca        1 715      0.158900
      3 C3          0.0610   -0.6930    4.3970 ca        1 715     -0.083300
      4 C4         -1.0140   -0.4740    5.2570 ca        1 715     -0.120000
      5 C5         -0.8060   -0.0750    6.5860 ca        1 715      0.080900
      6 C6          0.5180    0.1120    7.0650 ca        1 715      0.119900
      7 F9         -1.8600    0.1320    7.4080 f         1 715     -0.123900
      8 F10         2.4390   -0.7220    4.0720 f         1 715     -0.133900
      9 C11        -0.1770   -1.1140    2.9920 c3        1 715     -0.036100
     10 C12        -0.2850    0.0900    2.0320 c3        1 715      0.195500
     11 C15        -0.5080   -0.4970    0.6200 c3        1 715     -0.199400
     12 C16        -0.8830    0.5700   -0.3840 c         1 715      0.663100
     13 N19        -1.4720    0.1840   -1.5960 n         1 715     -0.473800
     14 N20         0.8300    0.9940    2.1690 n3        1 715     -0.916800
     15 O22        -0.7410    1.7840   -0.1430 o         1 715     -0.594100
     16 C25        -1.7890    1.1910   -2.5860 c3        1 715      0.067000
     17 C26        -0.8070    1.2440   -3.7880 c3        1 715      0.000300
     18 N27        -0.4300   -0.0760   -4.2140 na        1 715     -0.282700
     19 C28        -0.6470   -1.2210   -3.4340 cc        1 715      0.341800
     20 C29        -1.3620   -1.1630   -2.1110 c3        1 715      0.066700
     21 C39         0.2170   -0.5490   -5.3610 cc        1 715      0.259800
     22 N40         0.3670   -1.9090   -5.2450 nd        1 715     -0.276000
     23 N41        -0.1430   -2.3090   -4.1070 nd        1 715     -0.331000
     24 C42         0.6810    0.3240   -6.5140 c3        1 715      0.645600
     25 F43         0.9700   -0.3600   -7.6610 f         1 715     -0.219967
     26 F44        -0.2440    1.2700   -6.8870 f         1 715     -0.219967
     27 F45         1.8120    1.0450   -6.2250 f         1 715     -0.219967
     28 F46         0.7280    0.4970    8.3430 f         1 715     -0.119900
     29 H1          2.6320    0.0390    6.5740 ha        1 715      0.170000
     30 H4         -2.0460   -0.6100    4.8970 ha        1 715      0.156000
     31 H111       -1.1330   -1.6980    2.9280 hc        1 715      0.057200
     32 H112        0.6590   -1.7850    2.6570 hc        1 715      0.057200
     33 H12        -1.2120    0.6800    2.3040 h1        1 715      0.075700
     34 H151        0.4270   -1.0080    0.2670 hc        1 715      0.074700
     35 H152       -1.3260   -1.2630    0.6830 hc        1 715      0.074700
     36 H201        1.7000    0.5410    1.9750 hn        1 715      0.369300
     37 H202        0.7130    1.7980    1.5820 hn        1 715      0.369300
     38 H251       -2.8230    0.9700   -2.9760 h1        1 715      0.088700
     39 H252       -1.7910    2.2120   -2.1070 h1        1 715      0.088700
     40 H261       -1.3030    1.7860   -4.6430 h1        1 715      0.086200
     41 H262        0.1250    1.8100   -3.4970 h1        1 715      0.086200
     42 H291       -0.8260   -1.8410   -1.3890 h1        1 715      0.088200
     43 H292       -2.4050   -1.5690   -2.2720 h1        1 715      0.088200
@<TRIPOS>BOND
     1    1    2 ar  
     2    1    6 ar  
     3    1   29 1   
     4    2    3 ar  
     5    2    8 1   
     6    3    4 ar  
     7    3    9 1   
     8    4    5 ar  
     9    4   30 1   
    10    5    6 ar  
    11    5    7 1   
    12    6   28 1   
    13    9   10 1   
    14    9   31 1   
    15    9   32 1   
    16   10   11 1   
    17   10   14 1   
    18   10   33 1   
    19   11   12 1   
    20   11   34 1   
    21   11   35 1   
    22   12   13 1   
    23   12   15 2   
    24   13   16 1   
    25   13   20 1   
    26   14   36 1   
    27   14   37 1   
    28   16   17 1   
    29   16   38 1   
    30   16   39 1   
    31   17   18 1   
    32   17   40 1   
    33   17   41 1   
    34   18   19 1   
    35   18   21 1   
    36   19   20 1   
    37   19   23 2   
    38   20   42 1   
    39   20   43 1   
    40   21   22 2   
    41   21   24 1   
    42   22   23 1   
    43   24   25 1   
    44   24   26 1   
    45   24   27 1   
@<TRIPOS>SUBSTRUCTURE
     1 715         1 TEMP              0 ****  ****    0 ROOT
