@<TRIPOS>MOLECULE
715
   44    46     1     0     0
SMALL
bcc


@<TRIPOS>ATOM
      1 C1         -0.1990    0.2010    0.1980 ca        1 715     -0.164000
      2 C2          1.1850    0.0130    0.0750 ca        1 715      0.104900
      3 C3          2.0230   -0.0380    1.2130 ca        1 715     -0.170300
      4 C4          1.4500    0.0890    2.4780 ca        1 715     -0.109000
      5 C5          0.0650    0.2650    2.6280 ca        1 715      0.108900
      6 C6         -0.7680    0.3280    1.4740 ca        1 715      0.155900
      7 F9         -0.4750    0.3810    3.8580 f         1 715     -0.091900
      8 F10         1.7270   -0.1250   -1.1640 f         1 715     -0.151900
      9 C11         3.4990   -0.1370    1.0690 c3        1 715     -0.057100
     10 C12         3.9980   -1.5860    0.9670 c3        1 715      0.141500
     11 C15         5.5260   -1.5850    0.8560 c3        1 715     -0.187400
     12 C16         6.1040   -2.9910    0.9140 c         1 715      0.662100
     13 N19         7.4200   -3.1810    1.2730 n         1 715     -0.432800
     14 N20         3.3420   -2.3040   -0.1780 n4        1 715     -0.846600
     15 O22         5.3510   -3.9710    0.6900 o         1 715     -0.654100
     16 C25         7.9890   -4.5190    1.2750 c3        1 715      0.062000
     17 C26         8.9630   -4.8050    0.1020 c3        1 715      0.005300
     18 N27         9.7640   -3.6580   -0.2230 na        1 715     -0.288700
     19 C28         9.4940   -2.3680    0.2640 cc        1 715      0.313800
     20 C29         8.4020   -2.1080    1.2590 c3        1 715      0.062700
     21 C39        10.8570   -3.4850   -1.0790 cc        1 715      0.283800
     22 N40        11.2020   -2.1560   -1.0810 nd        1 715     -0.263000
     23 N41        10.3960   -1.4930   -0.2880 nd        1 715     -0.308000
     24 C42        11.5150   -4.6070   -1.8740 c3        1 715      0.645600
     25 F43        12.7360   -4.2890   -2.3890 f         1 715     -0.211633
     26 F44        11.7100   -5.7450   -1.1320 f         1 715     -0.211633
     27 F45        10.7520   -5.0130   -2.9400 f         1 715     -0.211633
     28 F46        -2.0950    0.5080    1.6090 f         1 715     -0.085900
     29 H1         -0.8370    0.2620   -0.7000 ha        1 715      0.193000
     30 H4          2.0810    0.0700    3.3820 ha        1 715      0.172000
     31 H111        3.9980    0.3240    1.9670 hc        1 715      0.098200
     32 H112        3.8320    0.4470    0.1660 hc        1 715      0.098200
     33 H12         3.7010   -2.1590    1.9000 hx        1 715      0.124700
     34 H151        5.9100   -0.9690    1.7170 hc        1 715      0.110700
     35 H152        5.8630   -1.0910   -0.0950 hc        1 715      0.110700
     36 H201        3.5500   -1.8280   -1.0610 hn        1 715      0.470467
     37 H202        2.3260   -2.2970   -0.0400 hn        1 715      0.470467
     38 H251        7.1660   -5.2880    1.2320 h1        1 715      0.101200
     39 H252        8.5450   -4.6380    2.2500 h1        1 715      0.101200
     40 H261        9.6370   -5.6620    0.3940 h1        1 715      0.094700
     41 H262        8.3810   -5.1110   -0.8150 h1        1 715      0.094700
     42 H291        7.9310   -1.1130    1.0240 h1        1 715      0.094700
     43 H292        8.8680   -2.0480    2.2890 h1        1 715      0.094700
     44 H203        3.6880   -3.2790   -0.2130 hn        1 715      0.470467
@<TRIPOS>BOND
     1    1    2 ar  
     2    1    6 ar  
     3    1   29 1   
     4    2    3 ar  
     5    2    8 1   
     6    3    4 ar  
     7    3    9 1   
     8    4    5 ar  
     9    4   30 1   
    10    5    6 ar  
    11    5    7 1   
    12    6   28 1   
    13    9   10 1   
    14    9   31 1   
    15    9   32 1   
    16   10   11 1   
    17   10   14 1   
    18   10   33 1   
    19   11   12 1   
    20   11   34 1   
    21   11   35 1   
    22   12   13 1   
    23   12   15 2   
    24   13   16 1   
    25   13   20 1   
    26   14   36 1   
    27   14   37 1   
    28   14   44 1   
    29   16   17 1   
    30   16   38 1   
    31   16   39 1   
    32   17   18 1   
    33   17   40 1   
    34   17   41 1   
    35   18   19 1   
    36   18   21 1   
    37   19   20 1   
    38   19   23 2   
    39   20   42 1   
    40   20   43 1   
    41   21   22 2   
    42   21   24 1   
    43   22   23 1   
    44   24   25 1   
    45   24   26 1   
    46   24   27 1   
@<TRIPOS>SUBSTRUCTURE
     1 715         1 TEMP              0 ****  ****    0 ROOT
