@<TRIPOS>MOLECULE
716
   61    63     1     0     0
SMALL
bcc


@<TRIPOS>ATOM
      1 CX         -0.0460    0.4450    0.1760 c2        1 716      0.284000
      2 CY          1.3450    0.0250    0.6660 c3        1 716     -0.050000
      3 CZ         -0.0930    1.1010   -1.1380 c2        1 716     -0.384000
      4 OX         -1.0710    0.2450    0.8360 o         1 716     -0.302000
      5 N2          1.3780   -0.4730    2.0310 n3        1 716     -0.282000
      6 C3          1.9150   -1.0110   -0.3190 c3        1 716     -0.142000
      7 C4          3.4040   -1.1930   -0.1290 c3        1 716     -0.167000
      8 C5          3.9300   -2.1850   -1.1700 c3        1 716     -0.052000
      9 N6          5.3690   -2.3410   -1.0970 n3        1 716     -0.281000
     10 C7          5.9640   -3.3260   -1.9630 c2        1 716      0.155000
     11 N8          7.3600   -3.5660   -1.7240 n3        1 716     -0.372000
     12 N9          5.2460   -3.9360   -2.8740 n2        1 716     -0.345000
     13 N10         0.5420    2.1450   -1.5380 n2        1 716     -0.087000
     14 C11         0.1950    2.5080   -2.9410 c3        1 716     -0.072000
     15 C12        -0.7740    1.5250   -3.3820 c1        1 716     -0.730000
     16 S13        -1.2630    0.4440   -2.5580 ss        1 716      0.879000
     17 N14         2.7510    2.3530    4.1090 n3        1 716     -0.141000
     18 C15         2.5430    0.9730    3.7990 cx        1 716     -0.057000
     19 C16         1.2680    0.5200    3.0660 cx        1 716      0.091000
     20 O17         0.3640    1.5770    2.8350 oh        1 716     -0.328000
     21 C18         1.4960    0.1340    4.5350 cx        1 716     -0.092000
     22 C19         1.8840   -1.2700    4.8720 c3        1 716     -0.198000
     23 C20         0.6250    0.7720    5.5680 c3        1 716     -0.198000
     24 C22         4.2720    4.4030    4.6530 c2        1 716      0.310000
     25 O23         5.1060    2.2100    4.2220 os        1 716     -0.155000
     26 O24         3.3740    5.2300    4.7380 o         1 716     -0.279000
     27 C25         5.7050    4.3590    4.7640 c2        1 716     -0.475000
     28 C26         6.5130    5.5350    5.1130 c3        1 716     -0.017000
     29 C27         6.6880    5.7750    6.5720 c2        1 716     -0.067000
     30 C28         6.3320    4.9650    7.5270 c1        1 716     -0.167000
     31 C29         6.0010    4.1550    8.4870 c2        1 716     -0.106000
     32 C30         6.1960    3.0770    4.4990 c1        1 716      0.063000
     33 CL31        4.4810    4.1990    9.2560 cl        1 716     -0.053000
     34 HY          0.6960   -1.1960    2.1720 hn        1 716      0.184000
     35 HN2         1.9880    0.9580    0.6220 h1        1 716      0.149000
     36 H31         1.3890   -1.9940   -0.1960 hc        1 716      0.092500
     37 H32         1.7160   -0.6460   -1.3620 hc        1 716      0.092500
     38 H41         3.3890   -3.1670   -1.0320 h1        1 716      0.092500
     39 H42         3.9230   -0.2050   -0.2380 hc        1 716      0.096000
     40 H51         3.6160   -1.5720    0.9050 hc        1 716      0.096000
     41 H52         3.6820   -1.8050   -2.2020 h1        1 716      0.092500
     42 HN6         5.6850   -2.4370   -0.1500 hn        1 716      0.186000
     43 HN81        7.8320   -2.8590   -1.2040 hn        1 716      0.186500
     44 HN82        7.8630   -3.8170   -2.5480 hn        1 716      0.186500
     45 HN9         5.7520   -4.5330   -3.4910 hn        1 716      0.147000
     46 H11         1.1380    2.5030   -3.5560 h1        1 716      0.164000
     47 H12        -0.2170    3.5560   -2.9460 h1        1 716      0.164000
     48 H14        -0.5310    1.2040    2.8170 ho        1 716      0.238000
     49 H15         1.9350    2.9410    4.1620 hn        1 716      0.285000
     50 H18         3.5030    0.4670    3.5300 h1        1 716      0.183000
     51 H191        0.9890   -1.9370    4.8050 hc        1 716      0.093833
     52 H192        2.6690   -1.6590    4.1790 hc        1 716      0.093833
     53 H193        2.2810   -1.3130    5.9170 hc        1 716      0.093833
     54 H201        1.2260    1.0050    6.4820 hc        1 716      0.093833
     55 H202       -0.1980    0.0730    5.8570 hc        1 716      0.093833
     56 H203        0.1640    1.7180    5.1910 hc        1 716      0.093833
     57 H26         6.0450    6.4580    4.6660 hc        1 716      0.098500
     58 H27         7.5390    5.4210    4.6600 hc        1 716      0.098500
     59 H28         7.1830    6.7320    6.8240 ha        1 716      0.135000
     60 H30         6.6570    3.3730    8.8940 h4        1 716      0.161000
     61 C21         3.9340    2.8980    4.2990 c2        1 716      0.126000
@<TRIPOS>BOND
     1    1    2 1   
     2    1    3 1   
     3    1    4 1   
     4    2    5 1   
     5    2    6 1   
     6    2   35 1   
     7    3   13 1   
     8    3   16 1   
     9    5   19 1   
    10    5   34 1   
    11    6    7 1   
    12    6   36 1   
    13    6   37 1   
    14    7    8 1   
    15    7   39 1   
    16    7   40 1   
    17    8    9 1   
    18    8   38 1   
    19    8   41 1   
    20    9   10 1   
    21    9   42 1   
    22   10   11 1   
    23   10   12 1   
    24   11   43 1   
    25   11   44 1   
    26   12   45 1   
    27   13   14 1   
    28   14   15 1   
    29   14   46 1   
    30   14   47 1   
    31   15   16 1   
    32   17   18 1   
    33   17   49 1   
    34   17   61 1   
    35   18   19 1   
    36   18   21 1   
    37   18   50 1   
    38   19   20 1   
    39   19   21 1   
    40   20   48 1   
    41   21   22 1   
    42   21   23 1   
    43   22   51 1   
    44   22   52 1   
    45   22   53 1   
    46   23   54 1   
    47   23   55 1   
    48   23   56 1   
    49   24   26 1   
    50   24   27 1   
    51   24   61 1   
    52   25   32 1   
    53   25   61 1   
    54   27   28 1   
    55   27   32 1   
    56   28   29 1   
    57   28   57 1   
    58   28   58 1   
    59   29   30 1   
    60   29   59 1   
    61   30   31 1   
    62   31   33 1   
    63   31   60 1   
@<TRIPOS>SUBSTRUCTURE
     1 716         1 TEMP              0 ****  ****    0 ROOT
