@<TRIPOS>MOLECULE
716
   61    56     1     0     0
SMALL
bcc


@<TRIPOS>ATOM
      1 CX         -2.9790   -0.3570   -1.1280 c1        1 716      0.285000
      2 CY         -1.5550   -0.8670   -1.0470 c2        1 716     -0.002000
      3 CZ         -3.3890    0.5560   -2.2650 c2        1 716     -0.395000
      4 OX         -3.7490   -0.5720   -0.2190 o         1 716     -0.291000
      5 N2         -1.1290   -0.8630    0.3030 n         1 716     -0.365000
      6 C3         -1.4890   -2.2920   -1.5980 c3        1 716     -0.160000
      7 C4         -0.5380   -2.3340   -2.7780 c3        1 716     -0.164000
      8 C5         -0.6880   -3.6660   -3.5060 c3        1 716     -0.058000
      9 N6         -0.3230   -3.4990   -4.8980 n3        1 716     -0.330000
     10 C7         -0.1870   -4.6670   -5.7600 c2        1 716      0.151000
     11 N8         -1.0370   -4.8190   -6.8930 n3        1 716     -0.320000
     12 N9          0.7100   -5.5700   -5.4950 n1        1 716     -0.346000
     13 N10        -2.9860    1.1070   -3.5270 n2        1 716     -0.078000
     14 C11        -4.1800    1.9400   -4.1080 c1        1 716     -0.138000
     15 C12        -5.2790    1.8690   -3.1740 c1        1 716     -0.476000
     16 S13        -4.8360    1.0080   -1.9920 ss        1 716      0.636000
     17 N14         0.2850    1.6640    2.5460 n         1 716     -0.340000
     18 C15        -0.3890    0.4050    2.3800 c3        1 716      0.006000
     19 C16        -1.0580    0.3650    1.0260 c2        1 716      0.281000
     20 O17        -1.5430    1.3790    0.5550 o         1 716     -0.368000
     21 C18        -1.4260    0.2450    3.4560 c3        1 716     -0.106000
     22 C19        -0.8870   -0.6850    4.5500 c3        1 716     -0.216500
     23 C20        -1.7470    1.6090    4.0600 c3        1 716     -0.216500
     24 C21         1.7140    1.7030    2.6810 c2        1 716      0.270000
     25 C22         2.4560    3.0420    2.5960 c2        1 716      0.265000
     26 O23         2.3310    0.6800    2.8970 o         1 716     -0.350000
     27 O24         1.8240    4.0820    2.4540 o         1 716     -0.255000
     28 C25         3.9620    3.0930    2.8220 c2        1 716     -0.148000
     29 C26         4.4640    3.4860    4.0610 c2        1 716     -0.071000
     30 C27         5.8310    3.6680    4.2330 c1        1 716     -0.139000
     31 C28         6.6950    3.4590    3.1750 c1        1 716     -0.089000
     32 C29         6.1940    3.0660    1.9330 c1        1 716     -0.080000
     33 C30         4.8260    2.8840    1.7610 c1        1 716     -0.070000
     34 CL31        7.2910    2.7510    0.6080 cl        1 716     -0.003000
     35 HY         -0.9740   -0.2890   -1.5730 h4        1 716      0.164000
     36 HN2        -0.9190   -1.6420    0.7130 hn        1 716      0.236000
     37 H31        -1.1670   -2.8990   -0.8950 hc        1 716      0.103500
     38 H32        -2.3930   -2.5760   -1.8910 hc        1 716      0.103500
     39 H41         0.3710   -2.2410   -2.4620 hc        1 716      0.098500
     40 H42        -0.7450   -1.6040   -3.3900 hc        1 716      0.098500
     41 H51        -1.6160   -3.9670   -3.4460 h1        1 716      0.081500
     42 H52        -0.1030   -4.3300   -3.0940 h1        1 716      0.081500
     43 HN6        -0.1470   -2.6640   -5.2280 hn        1 716      0.198000
     44 HN81       -1.7270   -4.2210   -7.0360 hn        1 716      0.185500
     45 HN82       -0.8730   -5.4790   -7.5000 hn        1 716      0.185500
     46 HN9         1.2490   -5.4740   -4.7770 DU        1 716      0.175000
     47 H11        -4.1800    2.4280   -4.9620 DU        1 716      0.175000
     48 H12        -6.1460    2.2930   -3.2790 DU        1 716      0.175000
     49 H14        -0.2000    2.4430    2.5840 hn        1 716      0.249000
     50 H15         0.2540   -0.3160    2.4430 h1        1 716      0.140000
     51 H18        -2.2430   -0.1430    3.0690 hc        1 716      0.098000
     52 H191       -0.4720   -1.4780    4.1330 hc        1 716      0.083167
     53 H192       -1.6360   -0.9740    5.1380 hc        1 716      0.083167
     54 H193       -0.2200   -0.2100    5.0820 hc        1 716      0.083167
     55 H201       -1.8920    2.2580    3.3400 hc        1 716      0.083167
     56 H202       -0.9990    1.9020    4.6170 hc        1 716      0.083167
     57 H203       -2.5610    1.5410    4.6110 hc        1 716      0.083167
     58 H26         3.8490    3.6350    4.8170 ha        1 716      0.157000
     59 H27         6.1790    3.9410    5.0960 ha        1 716      0.146000
     60 H28         7.6480    3.5860    3.2960 ha        1 716      0.152000
     61 H30         4.4720    2.6080    0.8860 ha        1 716      0.177000
@<TRIPOS>BOND
     1    1    3 1   
     2    1    4 1   
     3    2    5 1   
     4    2    6 1   
     5    2   35 1   
     6    3   13 1   
     7    3   16 1   
     8    5   19 1   
     9    5   36 1   
    10    6    7 1   
    11    6   37 1   
    12    6   38 1   
    13    7    8 1   
    14    7   39 1   
    15    7   40 1   
    16    8    9 1   
    17    8   41 1   
    18    8   42 1   
    19    9   10 1   
    20    9   43 1   
    21   10   11 1   
    22   10   12 1   
    23   11   44 1   
    24   11   45 1   
    25   13   14 1   
    26   14   15 1   
    27   15   16 1   
    28   17   18 1   
    29   17   24 1   
    30   17   49 1   
    31   18   19 1   
    32   18   21 1   
    33   18   50 1   
    34   19   20 1   
    35   21   22 1   
    36   21   23 1   
    37   21   51 1   
    38   22   52 1   
    39   22   53 1   
    40   22   54 1   
    41   23   55 1   
    42   23   56 1   
    43   23   57 1   
    44   24   25 1   
    45   24   26 1   
    46   25   27 1   
    47   25   28 1   
    48   28   29 1   
    49   28   33 1   
    50   29   30 1   
    51   29   58 1   
    52   30   59 1   
    53   31   32 1   
    54   31   60 1   
    55   32   34 1   
    56   33   61 1   
@<TRIPOS>SUBSTRUCTURE
     1 716         1 TEMP              0 ****  ****    0 ROOT
