@<TRIPOS>MOLECULE
716
   61    62     1     0     0
SMALL
bcc


@<TRIPOS>ATOM
      1 CX          3.8710    1.3190   -1.2680 c         1 716      0.483600
      2 CY          2.9790    0.3340   -0.4980 c3        1 716      0.027700
      3 CZ          5.0110    1.9030   -0.5350 cc        1 716      0.271900
      4 OX          3.6550    1.6180   -2.4470 o         1 716     -0.531100
      5 N2          1.6050    0.4070   -0.9330 n         1 716     -0.554900
      6 C3          3.5910   -1.0670   -0.6860 c3        1 716     -0.081400
      7 C4          2.9320   -2.0870    0.2150 c3        1 716     -0.088400
      8 C5          3.6800   -3.4180    0.1070 c3        1 716      0.184800
      9 N6          3.0450   -4.4640    0.8840 nh        1 716     -0.796200
     10 C7          3.7130   -5.7370    0.9430 c2        1 716      0.746100
     11 N8          3.1330   -6.6760    1.8630 nh        1 716     -0.933800
     12 N9          4.7700   -5.9740    0.2030 n2        1 716     -0.874100
     13 N10         5.5170    1.4020    0.6080 nd        1 716     -0.601000
     14 C11         6.5670    2.1830    1.0240 cd        1 716      0.327200
     15 C12         6.8510    3.2740    0.2000 cc        1 716     -0.271400
     16 S13         5.8170    3.3140   -1.0890 ss        1 716      0.048700
     17 N14        -1.8320    0.8880    0.1510 n         1 716     -0.530900
     18 C15        -0.7910    1.0950   -0.8250 c3        1 716      0.031700
     19 C16         0.6130    0.9840   -0.1710 c         1 716      0.638100
     20 O17         0.8210    1.3900    0.9890 o         1 716     -0.608100
     21 C18        -0.8630    2.4750   -1.5220 c3        1 716     -0.067700
     22 C19        -2.0180    2.5140   -2.4980 c3        1 716     -0.097600
     23 C20        -0.9560    3.6180   -0.5340 c3        1 716     -0.097600
     24 C22        -3.5740   -0.3860    1.3330 c         1 716      0.524700
     25 O23        -2.5560   -1.1120   -0.7410 o         1 716     -0.589100
     26 O24        -3.1270   -0.4920    2.4780 o         1 716     -0.494100
     27 C25        -5.0120   -0.3650    1.0220 ca        1 716     -0.167600
     28 C26        -5.9150   -0.1040    2.0640 ca        1 716     -0.072000
     29 C27        -7.2840   -0.0660    1.8100 ca        1 716     -0.139000
     30 C28        -7.7670   -0.2960    0.5220 ca        1 716     -0.089000
     31 C29        -6.8660   -0.5670   -0.5120 ca        1 716     -0.001600
     32 C30        -5.4890   -0.6030   -0.2720 ca        1 716     -0.070000
     33 CL31       -7.4500   -0.8550   -2.0820 cl        1 716     -0.081400
     34 HY          3.0040    0.6000    0.6040 h1        1 716      0.125700
     35 HN2         1.4260    0.1820   -1.8840 hn        1 716      0.322500
     36 H31         3.5010   -1.3850   -1.7580 hc        1 716      0.062200
     37 H32         4.6850   -1.0000   -0.4420 hc        1 716      0.062200
     38 H41         2.9460   -1.7190    1.2750 hc        1 716      0.055200
     39 H42         1.8580   -2.2240   -0.0800 hc        1 716      0.055200
     40 H51         3.6890   -3.7510   -0.9700 h1        1 716      0.054200
     41 H52         4.7530   -3.2520    0.4180 h1        1 716      0.054200
     42 HN6         2.7780   -4.1400    1.7940 hn        1 716      0.390800
     43 HN81        2.2020   -6.4680    2.1520 hn        1 716      0.389300
     44 HN82        3.2210   -7.6230    1.5640 hn        1 716      0.389300
     45 HN9         5.1140   -6.9080    0.2360 hn        1 716      0.388400
     46 H11         7.0980    1.9120    1.9450 h4        1 716      0.051100
     47 H12         7.6430    3.9970    0.3860 h4        1 716      0.188000
     48 H14        -1.7510    1.4210    0.9900 hn        1 716      0.335500
     49 H15        -0.9060    0.2970   -1.6230 h1        1 716      0.100700
     50 H18         0.0980    2.5820   -2.1040 hc        1 716      0.058700
     51 H191       -2.0240    3.4920   -3.0370 hc        1 716      0.043533
     52 H192       -1.9250    1.6940   -3.2510 hc        1 716      0.043533
     53 H193       -2.9930    2.3990   -1.9680 hc        1 716      0.043533
     54 H201       -0.2110    3.4860    0.2890 hc        1 716      0.043533
     55 H202       -0.7490    4.5850   -1.0540 hc        1 716      0.043533
     56 H203       -1.9770    3.6770   -0.0850 hc        1 716      0.043533
     57 H26        -5.5290    0.0650    3.0830 ha        1 716      0.157000
     58 H27        -7.9880    0.1420    2.6290 ha        1 716      0.146000
     59 H28        -8.8500   -0.2670    0.3240 ha        1 716      0.152000
     60 H30        -4.7880   -0.8350   -1.0930 ha        1 716      0.178000
     61 C21        -2.6040   -0.2540    0.1600 c         1 716      0.577100
@<TRIPOS>BOND
     1    1    2 1   
     2    1    3 1   
     3    1    4 2   
     4    2    5 1   
     5    2    6 1   
     6    2   34 1   
     7    3   13 2   
     8    3   16 1   
     9    5   19 1   
    10    5   35 1   
    11    6    7 1   
    12    6   36 1   
    13    6   37 1   
    14    7    8 1   
    15    7   38 1   
    16    7   39 1   
    17    8    9 1   
    18    8   40 1   
    19    8   41 1   
    20    9   10 1   
    21    9   42 1   
    22   10   11 1   
    23   10   12 2   
    24   11   43 1   
    25   11   44 1   
    26   12   45 1   
    27   13   14 1   
    28   14   15 2   
    29   14   46 1   
    30   15   16 1   
    31   15   47 1   
    32   17   18 1   
    33   17   48 1   
    34   17   61 1   
    35   18   19 1   
    36   18   21 1   
    37   18   49 1   
    38   19   20 2   
    39   21   22 1   
    40   21   23 1   
    41   21   50 1   
    42   22   51 1   
    43   22   52 1   
    44   22   53 1   
    45   23   54 1   
    46   23   55 1   
    47   23   56 1   
    48   24   26 2   
    49   24   27 1   
    50   24   61 1   
    51   25   61 2   
    52   27   28 ar  
    53   27   32 ar  
    54   28   29 ar  
    55   28   57 1   
    56   29   30 ar  
    57   29   58 1   
    58   30   31 ar  
    59   30   59 1   
    60   31   32 ar  
    61   31   33 1   
    62   32   60 1   
@<TRIPOS>SUBSTRUCTURE
     1 716         1 TEMP              0 ****  ****    0 ROOT
