@<TRIPOS>MOLECULE
717
   16    17     1     0     0
SMALL
bcc


@<TRIPOS>ATOM
      1 C1         -0.0270    0.0100    0.0170 cc        1 717      0.307600
      2 N2          1.3770    0.0200   -0.0090 nc        1 717     -0.630000
      3 C3          1.7470    0.0310    1.2890 cd        1 717      0.389900
      4 N4          0.5960    0.0280    2.1600 na        1 717     -0.146900
      5 C5         -0.5240    0.0150    1.3420 cd        1 717     -0.202600
      6 C6          0.9550    0.0390    3.5030 cc        1 717     -0.080300
      7 C7          2.3170    0.0500    3.6640 cd        1 717     -0.164100
      8 S8          3.1820    0.0470    2.1970 ss        1 717     -0.038300
      9 C9         -0.8460   -0.0040   -1.2220 c3        1 717      0.112100
     10 O10        -2.2170   -0.0110   -0.8400 oh        1 717     -0.606800
     11 H5         -1.5480    0.0100    1.7090 h4        1 717      0.199000
     12 H6          0.1780    0.0390    4.2760 h4        1 717      0.187000
     13 H7          2.8280    0.0600    4.6260 h4        1 717      0.185000
     14 H9         -0.6290    0.9100   -1.8410 h1        1 717      0.042700
     15 H9A        -0.6160   -0.9230   -1.8290 h1        1 717      0.042700
     16 HO10       -2.7210   -0.0200   -1.6610 ho        1 717      0.405000
@<TRIPOS>BOND
     1    1    2 1   
     2    1    5 2   
     3    1    9 1   
     4    2    3 2   
     5    3    4 1   
     6    3    8 1   
     7    4    5 1   
     8    4    6 1   
     9    5   11 1   
    10    6    7 2   
    11    6   12 1   
    12    7    8 1   
    13    7   13 1   
    14    9   10 1   
    15    9   14 1   
    16    9   15 1   
    17   10   16 1   
@<TRIPOS>SUBSTRUCTURE
     1 717         1 TEMP              0 ****  ****    0 ROOT
