@<TRIPOS>MOLECULE
717
   16    17     1     0     0
SMALL
bcc


@<TRIPOS>ATOM
      1 C1          1.5300    0.3000   -0.0000 cc        1 717      0.307600
      2 N2          0.5140    1.2690    0.0000 nc        1 717     -0.630000
      3 C3         -0.6370    0.5640    0.0010 cd        1 717      0.389900
      4 N4         -0.3780   -0.8570    0.0000 na        1 717     -0.146900
      5 C5          1.0000   -1.0120   -0.0010 cd        1 717     -0.202600
      6 C6         -1.5510   -1.6030    0.0000 cc        1 717     -0.080300
      7 C7         -2.6640   -0.8000    0.0010 cd        1 717     -0.164100
      8 S8         -2.3080    0.8650    0.0010 ss        1 717     -0.038300
      9 C9          2.9710    0.6580   -0.0010 c3        1 717      0.112100
     10 O10         3.7230   -0.5510   -0.0010 oh        1 717     -0.606800
     11 H5          1.5060   -1.9750   -0.0010 h4        1 717      0.199000
     12 H6         -1.5020   -2.6970   -0.0000 h4        1 717      0.187000
     13 H7         -3.6900   -1.1630    0.0010 h4        1 717      0.185000
     14 H9          3.2210    1.2610   -0.9170 h1        1 717      0.042700
     15 H9A         3.2220    1.2610    0.9160 h1        1 717      0.042700
     16 HO10        4.6500   -0.2870   -0.0020 ho        1 717      0.405000
@<TRIPOS>BOND
     1    1    2 1   
     2    1    5 2   
     3    1    9 1   
     4    2    3 2   
     5    3    4 1   
     6    3    8 1   
     7    4    5 1   
     8    4    6 1   
     9    5   11 1   
    10    6    7 2   
    11    6   12 1   
    12    7    8 1   
    13    7   13 1   
    14    9   10 1   
    15    9   14 1   
    16    9   15 1   
    17   10   16 1   
@<TRIPOS>SUBSTRUCTURE
     1 717         1 TEMP              0 ****  ****    0 ROOT
