@<TRIPOS>MOLECULE
717
   16    13     1     0     0
SMALL
bcc


@<TRIPOS>ATOM
      1 C1         -0.4690   -0.0660   -0.9610 c1        1 717     -0.142000
      2 N2          0.9330   -0.1220   -0.9280 n2        1 717     -0.109000
      3 C3          1.3140   -0.0780    0.3480 c2        1 717     -0.272000
      4 N4          0.1640    0.0070    1.1370 n3        1 717     -0.102000
      5 C5         -0.9150    0.0130    0.3170 c1        1 717     -0.135000
      6 C6          0.5960    0.0610    2.6570 c1        1 717     -0.059000
      7 C7          2.0150    0.0050    2.7230 c1        1 717     -0.432000
      8 S8          2.5420   -0.0840    1.3010 ss        1 717      0.556000
      9 C9         -1.3450   -0.0660   -2.2210 c2        1 717      0.059000
     10 O10        -0.5520    0.2670   -3.3470 oh        1 717     -0.323000
     11 H5         -1.9440    0.0680    0.6270 DU        1 717      0.187333
     12 H6          0.0170    0.1220    3.3870 DU        1 717      0.187333
     13 H7          2.5320   -0.1120    3.5190 DU        1 717      0.187333
     14 H9         -2.0900    0.6190   -2.1180 h4        1 717      0.092000
     15 H9A        -1.7220   -0.9220   -2.3440 h4        1 717      0.092000
     16 HO10       -1.0770    0.2870   -4.0980 ho        1 717      0.214000
@<TRIPOS>BOND
     1    1    2 1   
     2    1    5 1   
     3    2    3 1   
     4    3    4 1   
     5    3    8 1   
     6    4    5 1   
     7    4    6 1   
     8    6    7 1   
     9    7    8 1   
    10    9   10 1   
    11    9   14 1   
    12    9   15 1   
    13   10   16 1   
@<TRIPOS>SUBSTRUCTURE
     1 717         1 TEMP              0 ****  ****    0 ROOT
