@<TRIPOS>MOLECULE
719
   68    72     1     0     0
SMALL
bcc


@<TRIPOS>ATOM
      1 N1          2.9680   -1.9630    0.3970 na        1 719     -0.283000
      2 C2          3.1670   -3.3770    0.5850 c3        1 719      0.246800
      3 C3          3.8960   -1.0640   -0.1600 ca        1 719      0.468800
      4 C4          3.2020    0.2190   -0.2220 ca        1 719     -0.223200
      5 N5          1.8890    0.0760    0.2550 nc        1 719     -0.544100
      6 C6          2.7940   -3.8680    2.0230 c3        1 719      0.124100
      7 C7         -3.8600   -0.4130   -0.3640 ca        1 719     -0.185600
      8 C8          1.7810   -1.2140    0.5990 cd        1 719      0.400700
      9 O9          2.3690   -4.1300   -0.3420 os        1 719     -0.402600
     10 C10         1.4620   -4.6250    1.8400 c3        1 719      0.079100
     11 C11        -5.2410   -0.1720   -0.4200 ca        1 719      0.112100
     12 C12        -2.9860    0.6480   -0.0960 ca        1 719     -0.102000
     13 C13         1.3260   -4.8580    0.3180 c3        1 719      0.133300
     14 C14        -3.3490   -1.7970   -0.5720 c         1 719      0.682700
     15 N15         5.1890   -1.2470   -0.5600 nb        1 719     -0.723000
     16 C16        -3.4650    1.9500    0.0780 cp        1 719     -0.037000
     17 C17        -5.7260    1.1500   -0.2580 ca        1 719      0.100100
     18 C18        -4.8430    2.2020   -0.0170 ca        1 719     -0.108000
     19 C19         3.9430    1.3420   -0.7240 ca        1 719      0.740200
     20 N20         5.2440    1.1490   -1.1160 nb        1 719     -0.782000
     21 C21         5.7570   -0.1060   -1.0160 ca        1 719      0.684900
     22 C22        -2.5440    3.0500    0.3570 cp        1 719     -0.051000
     23 C23        -0.0240   -4.4830   -0.1870 c2        1 719     -0.190200
     24 O24        -3.9790   -2.7930   -0.1450 o         1 719     -0.642100
     25 O25         3.8700   -4.6840    2.4320 oh        1 719     -0.580800
     26 N26        -2.1920   -1.9520   -1.3020 n         1 719     -0.555900
     27 C27        -0.2740   -3.4860   -1.0370 c2        1 719     -0.166200
     28 C28        -2.9250    4.0930    1.2150 ca        1 719     -0.092000
     29 C29        -1.2700    3.0790   -0.2290 ca        1 719     -0.092000
     30 O30         1.5470   -5.8370    2.5620 oh        1 719     -0.594800
     31 O31        -6.2040   -1.1180   -0.6600 oh        1 719     -0.523100
     32 O32        -7.0640    1.4550   -0.3350 oh        1 719     -0.493100
     33 C33        -0.7920    5.1740    0.8760 ca        1 719      0.124900
     34 C34        -2.0640    5.1530    1.4770 ca        1 719     -0.163500
     35 C35        -0.3930    4.1270    0.0260 ca        1 719     -0.163500
     36 F36         0.0540    6.2070    1.1150 f         1 719     -0.147900
     37 C37        -1.6400   -3.2450   -1.6050 c3        1 719      0.114200
     38 N38         3.3130    2.5690   -0.8620 nh        1 719     -0.827900
     39 C39         4.0930    3.7620   -1.0990 c3        1 719      0.198800
     40 CA          3.2400    5.0370   -1.0910 c3        1 719      0.114400
     41 OB          2.6790    5.1600    0.2040 oh        1 719     -0.614800
     42 H2          4.2430   -3.6320    0.3370 h2        1 719      0.146700
     43 H6          2.6710   -3.0260    2.7550 h1        1 719      0.071700
     44 H8          0.8810   -1.6920    1.0050 h5        1 719      0.070800
     45 H10         0.6050   -4.0100    2.2270 h1        1 719      0.060700
     46 H12        -1.9050    0.4580    0.0040 ha        1 719      0.145000
     47 H13         1.5250   -5.9430    0.0720 h1        1 719      0.088700
     48 H18        -5.2420    3.2220    0.0940 ha        1 719      0.160000
     49 H21         6.8110   -0.2050   -1.3560 h5        1 719      0.055100
     50 H23        -0.8280   -5.1420    0.1850 ha        1 719      0.132000
     51 HO25        3.5450   -5.2840    3.1170 ho        1 719      0.435000
     52 HN26       -1.6800   -1.1510   -1.5850 hn        1 719      0.321500
     53 H27         0.5320   -2.8240   -1.3970 ha        1 719      0.145000
     54 H28        -3.9150    4.0720    1.6970 ha        1 719      0.143000
     55 H29        -0.9560    2.2680   -0.9030 ha        1 719      0.143000
     56 HO30        0.7220   -6.3140    2.4120 ho        1 719      0.422000
     57 HO31       -5.8350   -2.0030   -0.4930 ho        1 719      0.468000
     58 HO32       -7.5560    0.6270   -0.4540 ho        1 719      0.442000
     59 H34        -2.3650    5.9700    2.1480 ha        1 719      0.153000
     60 H35         0.6160    4.1430   -0.4160 ha        1 719      0.153000
     61 H37        -2.3590   -4.0380   -1.2460 h1        1 719      0.071700
     62 H37A       -1.5570   -3.3350   -2.7310 h1        1 719      0.071700
     63 HN38        2.5050    2.6990   -0.2860 hn        1 719      0.444800
     64 H39         4.9040    3.8730   -0.3220 h1        1 719      0.064700
     65 H39A        4.5840    3.6730   -2.1100 h1        1 719      0.064700
     66 HA          3.9060    5.9130   -1.3130 h1        1 719      0.035700
     67 HAA         2.4240    4.9890   -1.8610 h1        1 719      0.035700
     68 HOB         2.1580    5.9730    0.2170 ho        1 719      0.417000
@<TRIPOS>BOND
     1    1    2 1   
     2    1    3 1   
     3    1    8 1   
     4    2    6 1   
     5    2    9 1   
     6    2   42 1   
     7    3    4 ar  
     8    3   15 ar  
     9    4    5 1   
    10    4   19 ar  
    11    5    8 2   
    12    6   10 1   
    13    6   25 1   
    14    6   43 1   
    15    7   11 ar  
    16    7   12 ar  
    17    7   14 1   
    18    8   44 1   
    19    9   13 1   
    20   10   13 1   
    21   10   30 1   
    22   10   45 1   
    23   11   17 ar  
    24   11   31 1   
    25   12   16 ar  
    26   12   46 1   
    27   13   23 1   
    28   13   47 1   
    29   14   24 2   
    30   14   26 1   
    31   15   21 ar  
    32   16   18 ar  
    33   16   22 1   
    34   17   18 ar  
    35   17   32 1   
    36   18   48 1   
    37   19   20 ar  
    38   19   38 1   
    39   20   21 ar  
    40   21   49 1   
    41   22   28 ar  
    42   22   29 ar  
    43   23   27 2   
    44   23   50 1   
    45   25   51 1   
    46   26   37 1   
    47   26   52 1   
    48   27   37 1   
    49   27   53 1   
    50   28   34 ar  
    51   28   54 1   
    52   29   35 ar  
    53   29   55 1   
    54   30   56 1   
    55   31   57 1   
    56   32   58 1   
    57   33   34 ar  
    58   33   35 ar  
    59   33   36 1   
    60   34   59 1   
    61   35   60 1   
    62   37   61 1   
    63   37   62 1   
    64   38   39 1   
    65   38   63 1   
    66   39   40 1   
    67   39   64 1   
    68   39   65 1   
    69   40   41 1   
    70   40   66 1   
    71   40   67 1   
    72   41   68 1   
@<TRIPOS>SUBSTRUCTURE
     1 719         1 TEMP              0 ****  ****    0 ROOT
