@<TRIPOS>MOLECULE
719
   69    73     1     0     0
SMALL
bcc


@<TRIPOS>ATOM
      1 N1         -1.2260    1.1130   -1.2920 na        1 719     -0.275000
      2 C2         -1.9340    1.0770   -2.5580 c3        1 719      0.236800
      3 C3         -0.4470    0.1160   -0.6680 ca        1 719      0.460800
      4 C4         -0.4500    0.4470    0.7580 ca        1 719     -0.262200
      5 N5         -1.2420    1.5880    0.9810 nc        1 719     -0.578100
      6 C6         -1.4780   -0.0170   -3.5650 c3        1 719      0.088100
      7 C7         -3.7770   -0.7470    4.7450 ca        1 719     -0.194600
      8 C8         -1.6880    1.9450   -0.2280 cd        1 719      0.437700
      9 O9         -3.3300    0.8280   -2.3190 os        1 719     -0.416600
     10 C10        -2.5110   -1.1600   -3.3890 c3        1 719      0.102100
     11 C11        -4.6990    0.3100    4.6430 ca        1 719      0.152100
     12 C12        -3.3880   -1.1970    6.0230 ca        1 719     -0.060000
     13 C13        -3.6230   -0.5670   -2.4850 c3        1 719      0.111300
     14 C14        -3.1990   -1.4660    3.6080 c         1 719      0.588700
     15 N15         0.2480   -0.9390   -1.1780 nb        1 719     -0.723000
     16 C16        -3.8860   -0.6030    7.1840 cp        1 719     -0.003000
     17 C17        -5.2020    0.9060    5.8240 ca        1 719      0.058100
     18 C18        -4.8000    0.4600    7.0800 ca        1 719     -0.108000
     19 C19         0.3520   -0.3580    1.6320 ca        1 719      0.692200
     20 N20         1.0630   -1.3960    1.0950 nb        1 719     -0.754000
     21 C21         0.9620   -1.6130   -0.2440 ca        1 719      0.689900
     22 C22        -3.4670   -1.0830    8.4980 cp        1 719     -0.093000
     23 C23        -3.7330   -1.2600   -1.1660 c2        1 719     -0.098200
     24 O24        -2.7620   -2.6120    3.6120 o         1 719     -0.442100
     25 O25        -1.6250    0.5730   -4.8440 oh        1 719     -0.590800
     26 N26        -3.0690   -0.7410    2.2920 n4        1 719     -0.663800
     27 C27        -3.9180   -0.5930   -0.0220 c2        1 719     -0.246200
     28 C28        -4.4050   -1.2250    9.5310 ca        1 719     -0.083500
     29 C29        -2.1240   -1.4080    8.7380 ca        1 719     -0.083500
     30 O30        -3.0240   -1.5940   -4.6220 oh        1 719     -0.574800
     31 O31        -5.1060    0.7280    3.4010 oh        1 719     -0.538100
     32 O32        -6.0950    1.9340    5.6190 oh        1 719     -0.509100
     33 C33        -2.6650   -2.0040   11.0170 ca        1 719      0.158900
     34 C34        -4.0160   -1.6830   10.7840 ca        1 719     -0.162500
     35 C35        -1.7160   -1.8630    9.9860 ca        1 719     -0.162500
     36 F36        -2.2780   -2.4480   12.2330 f         1 719     -0.120900
     37 C37        -4.0770   -1.2500    1.3020 c3        1 719      0.164000
     38 N38         0.2750   -0.1290    3.0130 nh        1 719     -0.824900
     39 C39         1.2120   -0.7740    3.9080 c3        1 719      0.174800
     40 CA          2.6070   -0.1380    3.9730 c3        1 719      0.097400
     41 OB          2.4270    1.1980    4.4140 oh        1 719     -0.617800
     42 H2         -1.8920    2.1120   -3.0140 h2        1 719      0.139700
     43 H6         -0.4260   -0.3670   -3.4170 h1        1 719      0.112700
     44 H8         -2.3300    2.8120   -0.4430 h5        1 719      0.093800
     45 H10        -2.0380   -2.0710   -2.9330 h1        1 719      0.107700
     46 H12        -2.6840   -2.0450    6.0990 ha        1 719      0.173000
     47 H13        -4.6240   -0.5990   -3.0060 h1        1 719      0.117700
     48 H18        -5.1930    0.9390    7.9920 ha        1 719      0.168000
     49 H21         1.5620   -2.4700   -0.6270 h5        1 719      0.074100
     50 H23        -3.6840   -2.3610   -1.2150 ha        1 719      0.150000
     51 HO25       -1.1480    0.0090   -5.4690 ho        1 719      0.435000
     52 HN26       -3.2040    0.2710    2.4290 hn        1 719      0.474300
     53 H27        -3.9940    0.5110   -0.0230 ha        1 719      0.159000
     54 H28        -5.4640   -0.9830    9.3490 ha        1 719      0.138500
     55 H29        -1.3790   -1.2920    7.9360 ha        1 719      0.138500
     56 HO30       -3.3560   -0.8170   -5.0990 ho        1 719      0.426000
     57 HO31       -5.7530    1.4490    3.5050 ho        1 719      0.481000
     58 HO32       -6.3750    2.2760    6.4830 ho        1 719      0.455000
     59 H34        -4.7520   -1.8000   11.5940 ha        1 719      0.163000
     60 H35        -0.6620   -2.1130   10.1780 ha        1 719      0.163000
     61 H37        -5.1010   -1.0150    1.7230 hx        1 719      0.110700
     62 H37A       -3.9500   -2.3690    1.2360 hx        1 719      0.110700
     63 HN38        0.1730    0.8500    3.2250 hn        1 719      0.436800
     64 H39         0.7470   -0.7080    4.9340 h1        1 719      0.077700
     65 H39A        1.3320   -1.8590    3.6360 h1        1 719      0.077700
     66 HA          3.2350   -0.7100    4.7070 h1        1 719      0.047200
     67 HAA         3.1060   -0.1510    2.9680 h1        1 719      0.047200
     68 HOB         3.3040    1.5940    4.4820 ho        1 719      0.420000
     69 H262       -2.1200   -0.8930    1.9180 hn        1 719      0.474300
@<TRIPOS>BOND
     1    1    2 1   
     2    1    3 1   
     3    1    8 1   
     4    2    6 1   
     5    2    9 1   
     6    2   42 1   
     7    3    4 ar  
     8    3   15 ar  
     9    4    5 1   
    10    4   19 ar  
    11    5    8 2   
    12    6   10 1   
    13    6   25 1   
    14    6   43 1   
    15    7   11 ar  
    16    7   12 ar  
    17    7   14 1   
    18    8   44 1   
    19    9   13 1   
    20   10   13 1   
    21   10   30 1   
    22   10   45 1   
    23   11   17 ar  
    24   11   31 1   
    25   12   16 ar  
    26   12   46 1   
    27   13   23 1   
    28   13   47 1   
    29   14   24 2   
    30   14   26 1   
    31   15   21 ar  
    32   16   18 ar  
    33   16   22 1   
    34   17   18 ar  
    35   17   32 1   
    36   18   48 1   
    37   19   20 ar  
    38   19   38 1   
    39   20   21 ar  
    40   21   49 1   
    41   22   28 ar  
    42   22   29 ar  
    43   23   27 2   
    44   23   50 1   
    45   25   51 1   
    46   26   37 1   
    47   26   52 1   
    48   26   69 1   
    49   27   37 1   
    50   27   53 1   
    51   28   34 ar  
    52   28   54 1   
    53   29   35 ar  
    54   29   55 1   
    55   30   56 1   
    56   31   57 1   
    57   32   58 1   
    58   33   34 ar  
    59   33   35 ar  
    60   33   36 1   
    61   34   59 1   
    62   35   60 1   
    63   37   61 1   
    64   37   62 1   
    65   38   39 1   
    66   38   63 1   
    67   39   40 1   
    68   39   64 1   
    69   39   65 1   
    70   40   41 1   
    71   40   66 1   
    72   40   67 1   
    73   41   68 1   
@<TRIPOS>SUBSTRUCTURE
     1 719         1 TEMP              0 ****  ****    0 ROOT
