@<TRIPOS>MOLECULE
719
   70    74     1     0     0
SMALL
bcc


@<TRIPOS>ATOM
      1 N1          1.6200    0.1160   -0.5880 na        1 719     -0.261000
      2 C2          0.2510    0.4940   -0.8460 c3        1 719      0.216800
      3 C3          2.7560    0.7930   -1.0670 ca        1 719      0.467800
      4 C4          3.9050    0.0630   -0.4880 ca        1 719     -0.136200
      5 N5          3.4430   -0.9840    0.3220 nc        1 719     -0.564100
      6 C6         -0.6160   -0.6250   -1.5150 c3        1 719      0.080100
      7 C7         -6.6900   -0.2680    5.7790 ca        1 719     -0.206600
      8 C8          2.1040   -0.9180    0.2470 cd        1 719      0.498700
      9 O9         -0.3810    0.8450    0.4010 os        1 719     -0.418600
     10 C10        -1.9080   -0.6820   -0.6720 c3        1 719      0.084100
     11 C11        -7.4710    0.7460    5.1910 ca        1 719      0.145100
     12 C12        -7.1790   -0.9270    6.9270 ca        1 719     -0.058000
     13 C13        -1.7540    0.4180    0.4000 c3        1 719      0.154300
     14 C14        -5.3770   -0.7020    5.3130 c         1 719      0.586700
     15 N15         2.8930    1.8630   -1.8880 nb        1 719     -0.627000
     16 C16        -8.4180   -0.6020    7.4820 cp        1 719      0.009000
     17 C17        -8.7240    1.0740    5.7600 ca        1 719      0.065100
     18 C18        -9.1950    0.4090    6.8910 ca        1 719     -0.098000
     19 C19         5.1790    0.5440   -0.8490 ca        1 719      0.549200
     20 N20         5.3240    1.6160   -1.6690 nb        1 719     -0.682000
     21 C21         4.1840    2.2050   -2.1320 ca        1 719      0.681900
     22 C22        -8.9050   -1.3030    8.6660 cp        1 719     -0.107000
     23 C23        -2.1180   -0.0150    1.7790 c2        1 719     -0.088200
     24 O24        -4.5710   -1.4080    5.9070 o         1 719     -0.441100
     25 O25        -0.8680   -0.3280   -2.8610 oh        1 719     -0.558800
     26 N26        -4.9490   -0.2520    3.9280 n4        1 719     -0.667800
     27 C27        -3.3360   -0.4870    2.0670 c2        1 719     -0.247200
     28 C28       -10.2510   -1.6850    8.7580 ca        1 719     -0.080500
     29 C29        -8.0300   -1.5990    9.7230 ca        1 719     -0.080500
     30 O30        -3.0380   -0.3400   -1.4480 oh        1 719     -0.591800
     31 O31        -7.0040    1.3990    4.0770 oh        1 719     -0.557100
     32 O32        -9.4080    2.0750    5.1110 oh        1 719     -0.508100
     33 C33        -9.8390   -2.6470   10.9380 ca        1 719      0.167900
     34 C34       -10.7230   -2.3550    9.8800 ca        1 719     -0.162000
     35 C35        -8.4860   -2.2630   10.8550 ca        1 719     -0.162000
     36 F36       -10.2890   -3.2950   12.0330 f         1 719     -0.113900
     37 C37        -3.7160   -0.9360    3.4350 c3        1 719      0.156000
     38 N38         6.3840   -0.1200   -0.3140 n4        1 719     -0.740700
     39 C39         7.3140   -0.5870   -1.3920 c3        1 719      0.104800
     40 CA          8.5270   -1.3250   -0.8080 c3        1 719      0.105400
     41 OB          8.0280   -2.3120    0.0760 oh        1 719     -0.632800
     42 H2          0.2610    1.4260   -1.4930 h2        1 719      0.127700
     43 H6         -0.0930   -1.6200   -1.5360 h1        1 719      0.110700
     44 H8          1.4150   -1.5960    0.7740 h5        1 719      0.097800
     45 H10        -2.0440   -1.6950   -0.2110 h1        1 719      0.072700
     46 H12        -6.5650   -1.7210    7.3910 ha        1 719      0.177000
     47 H13        -2.3750    1.3190    0.1120 h1        1 719      0.110700
     48 H18       -10.1720    0.6800    7.3280 ha        1 719      0.176000
     49 H21         4.3400    3.0850   -2.8020 h5        1 719      0.104100
     50 H23        -1.3270    0.1160    2.5390 ha        1 719      0.160000
     51 HO25       -1.4290    0.4630   -2.9040 ho        1 719      0.429000
     52 HN26       -4.8020    0.7670    3.9570 hn        1 719      0.468300
     53 H27        -4.0990   -0.6130    1.2780 ha        1 719      0.160000
     54 H28       -10.9440   -1.4650    7.9310 ha        1 719      0.139000
     55 H29        -6.9740   -1.2930    9.6660 ha        1 719      0.139000
     56 HO30       -3.1110   -0.9980   -2.1570 ho        1 719      0.442000
     57 HO31       -7.6280    2.1110    3.8420 ho        1 719      0.490000
     58 HO32      -10.2150    2.2770    5.6120 ho        1 719      0.462000
     59 H34       -11.7790   -2.6600    9.9530 ha        1 719      0.167000
     60 H35        -7.8040   -2.4910   11.6880 ha        1 719      0.167000
     61 H37        -2.8940   -0.7410    4.1850 hx        1 719      0.115700
     62 H37A       -3.9230   -2.0480    3.4320 hx        1 719      0.115700
     63 HN38        6.8830    0.5360    0.3020 hn        1 719      0.481300
     64 H39         6.7310   -1.2790   -2.0640 hx        1 719      0.122700
     65 H39A        7.6700    0.3020   -1.9860 hx        1 719      0.122700
     66 HA          9.0980   -1.7780   -1.6630 h1        1 719      0.077700
     67 HAA         9.1960   -0.6210   -0.2430 h1        1 719      0.077700
     68 HOB         8.7040   -2.9960    0.1710 ho        1 719      0.455000
     69 H262       -5.7300   -0.4160    3.2800 hn        1 719      0.468300
     70 H382        6.0990   -0.9420    0.2470 hn        1 719      0.481300
@<TRIPOS>BOND
     1    1    2 1   
     2    1    3 1   
     3    1    8 1   
     4    2    6 1   
     5    2    9 1   
     6    2   42 1   
     7    3    4 ar  
     8    3   15 ar  
     9    4    5 1   
    10    4   19 ar  
    11    5    8 2   
    12    6   10 1   
    13    6   25 1   
    14    6   43 1   
    15    7   11 ar  
    16    7   12 ar  
    17    7   14 1   
    18    8   44 1   
    19    9   13 1   
    20   10   13 1   
    21   10   30 1   
    22   10   45 1   
    23   11   17 ar  
    24   11   31 1   
    25   12   16 ar  
    26   12   46 1   
    27   13   23 1   
    28   13   47 1   
    29   14   24 2   
    30   14   26 1   
    31   15   21 ar  
    32   16   18 ar  
    33   16   22 1   
    34   17   18 ar  
    35   17   32 1   
    36   18   48 1   
    37   19   20 ar  
    38   19   38 1   
    39   20   21 ar  
    40   21   49 1   
    41   22   28 ar  
    42   22   29 ar  
    43   23   27 2   
    44   23   50 1   
    45   25   51 1   
    46   26   37 1   
    47   26   52 1   
    48   26   69 1   
    49   27   37 1   
    50   27   53 1   
    51   28   34 ar  
    52   28   54 1   
    53   29   35 ar  
    54   29   55 1   
    55   30   56 1   
    56   31   57 1   
    57   32   58 1   
    58   33   34 ar  
    59   33   35 ar  
    60   33   36 1   
    61   34   59 1   
    62   35   60 1   
    63   37   61 1   
    64   37   62 1   
    65   38   39 1   
    66   38   63 1   
    67   38   70 1   
    68   39   40 1   
    69   39   64 1   
    70   39   65 1   
    71   40   41 1   
    72   40   66 1   
    73   40   67 1   
    74   41   68 1   
@<TRIPOS>SUBSTRUCTURE
     1 719         1 TEMP              0 ****  ****    0 ROOT
