@<TRIPOS>MOLECULE
719
   69    73     1     0     0
SMALL
bcc


@<TRIPOS>ATOM
      1 N1          0.2040    0.1010   -0.4700 na        1 719     -0.313000
      2 C2         -1.0090   -0.2090   -1.1820 c3        1 719      0.239800
      3 C3          1.2500   -0.8070   -0.2210 ca        1 719      0.455800
      4 C4          2.3450    0.0020    0.2920 ca        1 719     -0.228200
      5 N5          1.9720    1.3550    0.3180 nc        1 719     -0.520100
      6 C6         -1.8450   -1.3540   -0.5200 c3        1 719      0.091100
      7 C7         -6.3110   -0.3690    4.0580 ca        1 719     -0.204600
      8 C8          0.7210    1.3880   -0.1530 cd        1 719      0.409700
      9 O9         -1.8520    0.9550   -1.2420 os        1 719     -0.394600
     10 C10        -3.0010   -0.6210    0.1860 c3        1 719      0.120100
     11 C11        -6.7340   -1.6450    3.6460 ca        1 719      0.152100
     12 C12        -5.9840   -0.1550    5.4110 ca        1 719     -0.061000
     13 C13        -3.0330    0.7900   -0.4500 c3        1 719      0.114300
     14 C14        -6.2240    0.7980    3.1760 c         1 719      0.580700
     15 N15         1.3060   -2.1630   -0.3780 nb        1 719     -0.777000
     16 C16        -6.0520   -1.1910    6.3440 cp        1 719     -0.001000
     17 C17        -6.8080   -2.6890    4.5980 ca        1 719      0.059100
     18 C18        -6.4680   -2.4680    5.9310 ca        1 719     -0.107000
     19 C19         3.5600   -0.6840    0.6450 ca        1 719      0.767200
     20 N20         3.6040   -2.0550    0.4940 nb        1 719     -0.785000
     21 C21         2.5050   -2.6750   -0.0000 ca        1 719      0.700900
     22 C22        -5.7000   -0.9510    7.7410 cp        1 719     -0.096000
     23 C23        -3.1030    1.8650    0.5800 c2        1 719     -0.096200
     24 O24        -6.3400    1.9730    3.5040 o         1 719     -0.435100
     25 O25        -2.4000   -2.1670   -1.5320 oh        1 719     -0.606800
     26 N26        -5.9350    0.5260    1.7200 ny        1 719     -0.666800
     27 C27        -4.2180    2.2570    1.2060 c2        1 719     -0.239200
     28 C28        -4.9440   -1.8950    8.4520 ca        1 719     -0.083000
     29 C29        -6.1140    0.2240    8.3840 ca        1 719     -0.083000
     30 O30        -4.2610   -1.2420    0.0810 oh        1 719     -0.640800
     31 O31        -7.0740   -1.8440    2.3320 oh        1 719     -0.541100
     32 O32        -7.2270   -3.9010    4.0980 oh        1 719     -0.508100
     33 C33        -5.0230   -0.4920   10.4190 ca        1 719      0.158900
     34 C34        -4.6010   -1.6750    9.7800 ca        1 719     -0.162500
     35 C35        -5.7860    0.4590    9.7130 ca        1 719     -0.162500
     36 F36        -4.6970   -0.2710   11.7110 f         1 719     -0.119900
     37 C37        -5.5850    1.7410    0.9200 c3        1 719      0.158000
     38 N38         4.6460    0.0310    1.0730 nu        1 719     -0.831900
     39 C39         5.8380   -0.6020    1.5810 c3        1 719      0.209800
     40 CA          6.9730    0.3980    1.8410 c3        1 719      0.113400
     41 OB          6.5230    1.3040    2.8340 oh        1 719     -0.610800
     42 H2         -0.7710   -0.4590   -2.2610 h2        1 719      0.114700
     43 H6         -1.2530   -1.9670    0.2090 h1        1 719      0.108700
     44 H8          0.1100    2.2870   -0.3040 h5        1 719      0.079800
     45 H10        -2.7940   -0.5620    1.2910 h1        1 719      0.084700
     46 H12        -5.6680    0.8540    5.7330 ha        1 719      0.173000
     47 H13        -3.8910    0.8730   -1.1800 h1        1 719      0.086700
     48 H18        -6.5350   -3.2890    6.6640 ha        1 719      0.169000
     49 H21         2.6060   -3.7780   -0.1110 h5        1 719      0.056100
     50 H23        -2.1360    2.3580    0.8000 ha        1 719      0.169000
     51 HO25       -1.7340   -2.8310   -1.7630 ho        1 719      0.450000
     52 HN26       -6.7710    0.0800    1.3120 hn        1 719      0.477300
     53 H27        -4.1820    3.0600    1.9640 ha        1 719      0.167000
     54 H28        -4.6070   -2.8180    7.9540 ha        1 719      0.140500
     55 H29        -6.7180    0.9660    7.8380 ha        1 719      0.140500
     56 HO30       -4.3150   -1.7100   -0.7670 ho        1 719      0.460000
     57 HO31       -7.4070   -2.7530    2.2250 ho        1 719      0.485000
     58 HO32       -7.3430   -4.5160    4.8400 ho        1 719      0.456000
     59 H34        -4.0040   -2.4120   10.3380 ha        1 719      0.164000
     60 H35        -6.1150    1.3780   10.2220 ha        1 719      0.164000
     61 H37        -6.3480    2.5400    1.1570 hx        1 719      0.109200
     62 H37A       -5.6860    1.4490   -0.1670 hx        1 719      0.109200
     63 HN38        4.5060    0.9900    1.3130 hn        1 719      0.467800
     64 H39         6.2070   -1.3590    0.8300 h1        1 719      0.068200
     65 H39A        5.6040   -1.1420    2.5440 h1        1 719      0.068200
     66 HA          7.2460    0.9570    0.9060 h1        1 719      0.042200
     67 HAA         7.8670   -0.1730    2.2080 h1        1 719      0.042200
     68 HOB         7.2580    1.8990    3.0240 ho        1 719      0.414000
     69 H262       -5.1710   -0.1660    1.6620 hn        1 719      0.477300
@<TRIPOS>BOND
     1    1    2 1   
     2    1    3 1   
     3    1    8 1   
     4    2    6 1   
     5    2    9 1   
     6    2   42 1   
     7    3    4 ar  
     8    3   15 ar  
     9    4    5 1   
    10    4   19 ar  
    11    5    8 2   
    12    6   10 1   
    13    6   25 1   
    14    6   43 1   
    15    7   11 ar  
    16    7   12 ar  
    17    7   14 1   
    18    8   44 1   
    19    9   13 1   
    20   10   13 1   
    21   10   30 1   
    22   10   45 1   
    23   11   17 ar  
    24   11   31 1   
    25   12   16 ar  
    26   12   46 1   
    27   13   23 1   
    28   13   47 1   
    29   14   24 2   
    30   14   26 1   
    31   15   21 ar  
    32   16   18 ar  
    33   16   22 1   
    34   17   18 ar  
    35   17   32 1   
    36   18   48 1   
    37   19   20 ar  
    38   19   38 1   
    39   20   21 ar  
    40   21   49 1   
    41   22   28 ar  
    42   22   29 ar  
    43   23   27 2   
    44   23   50 1   
    45   25   51 1   
    46   26   37 1   
    47   26   52 1   
    48   26   69 1   
    49   27   37 1   
    50   27   53 1   
    51   28   34 ar  
    52   28   54 1   
    53   29   35 ar  
    54   29   55 1   
    55   30   56 1   
    56   31   57 1   
    57   32   58 1   
    58   33   34 ar  
    59   33   35 ar  
    60   33   36 1   
    61   34   59 1   
    62   35   60 1   
    63   37   61 1   
    64   37   62 1   
    65   38   39 1   
    66   38   63 1   
    67   39   40 1   
    68   39   64 1   
    69   39   65 1   
    70   40   41 1   
    71   40   66 1   
    72   40   67 1   
    73   41   68 1   
@<TRIPOS>SUBSTRUCTURE
     1 719         1 TEMP              0 ****  ****    0 ROOT
