@<TRIPOS>MOLECULE
719
   68    58     1     0     0
SMALL
bcc


@<TRIPOS>ATOM
      1 N1          4.4250   -1.1290   -1.1620 n2        1 719     -0.202000
      2 C2          3.3370   -0.3510   -1.2770 c2        1 719      0.131000
      3 C3          5.2930   -1.8670   -1.9140 c1        1 719      0.012000
      4 C4          6.4730   -1.2230   -1.9400 c1        1 719     -0.231000
      5 N5          6.3440   -0.0700   -1.1970 n1        1 719     -0.161000
      6 C6          2.2510   -1.0760   -2.0400 c3        1 719     -0.010000
      7 C7         -4.8360    1.6060    1.9490 c1        1 719     -0.127000
      8 C8          5.0860   -0.0190   -0.7230 c1        1 719      0.012000
      9 O9          2.7500   -0.0300    0.1330 os        1 719     -0.273000
     10 C10         1.3400   -1.3850   -1.1490 c3        1 719     -0.023000
     11 C11        -4.7600    2.7870    2.6960 c1        1 719      0.099000
     12 C12        -6.0420    0.9170    1.8550 c1        1 719     -0.079000
     13 C13         1.4370   -0.2610    0.0400 c3        1 719      0.035000
     14 C14        -3.5910    0.9680    1.2690 c2        1 719      0.371000
     15 N15         5.1690   -3.1100   -2.5080 n1        1 719     -0.161000
     16 C16        -7.1770    1.4030    2.5070 c1        1 719     -0.047000
     17 C17        -5.8900    3.2720    3.3440 c1        1 719     -0.011000
     18 C18        -7.1030    2.5780    3.2500 c1        1 719     -0.139000
     19 C19         7.5730   -1.8110   -2.5660 c1        1 719      0.217000
     20 N20         7.4500   -3.0280   -3.1470 n1        1 719     -0.259000
     21 C21         6.2460   -3.6840   -3.1200 c1        1 719      0.015000
     22 C22        -8.4060    0.7420    2.3630 c1        1 719     -0.047000
     23 C23         0.7860   -0.6950    1.3600 c2        1 719     -0.167000
     24 O24        -3.7110   -0.0690    0.6240 o         1 719     -0.416000
     25 O25         1.6660   -0.1770   -3.0840 oh        1 719     -0.299000
     26 N26        -2.3090    1.4730    1.5510 n         1 719     -0.359000
     27 C27        -0.4250   -0.1400    1.7520 c1        1 719     -0.181000
     28 C28        -9.3020    1.4900    1.6060 c1        1 719     -0.130500
     29 C29        -8.8820   -0.1500    3.3290 c1        1 719     -0.079000
     30 O30         0.0280   -1.3510   -1.7520 oh        1 719     -0.335000
     31 O31        -3.5190    3.4790    2.8160 oh        1 719     -0.259000
     32 O32        -5.7970    4.4580    4.1810 oh        1 719     -0.272000
     33 C33       -11.1400    0.4640    2.7720 c1        1 719      0.098000
     34 C34       -10.6630    1.3530    1.8090 c1        1 719     -0.130500
     35 C35       -10.2440   -0.2870    3.5310 c1        1 719     -0.163000
     36 F36       -12.4240    0.2590    2.8860 f         1 719     -0.102000
     37 C37        -1.1280    0.9300    0.8480 c2        1 719     -0.008000
     38 N38         8.8080   -1.1590   -2.8120 n3        1 719     -0.281000
     39 C39        10.0210   -1.9480   -3.0260 c3        1 719     -0.036000
     40 CA         10.9390   -1.2140   -3.9860 c3        1 719     -0.053000
     41 OB         12.2140   -1.7490   -3.9070 oh        1 719     -0.328000
     42 H2          3.5640    0.4640   -1.7280 h4        1 719      0.145000
     43 H6          2.6040   -1.8760   -2.4460 h1        1 719      0.158000
     44 H8          4.6950    0.7170   -0.2280 DU        1 719      0.213000
     45 H10         1.5090   -2.2340   -0.8010 h1        1 719      0.132000
     46 H12        -6.0920    0.1060    1.3420 ha        1 719      0.155500
     47 H13         0.9190    0.5720   -0.1810 h1        1 719      0.141000
     48 H18        -7.9070    2.9230    3.7110 ha        1 719      0.145000
     49 H21         6.1600   -4.5660   -3.5420 ha        1 719      0.190000
     50 H23         1.2360   -1.3800    1.9410 ha        1 719      0.139000
     51 HO25        1.8870   -0.4680   -3.8750 ho        1 719      0.219000
     52 HN26       -2.2160    2.1850    2.1120 hn        1 719      0.244000
     53 H27        -0.8410   -0.4180    2.5950 ha        1 719      0.129000
     54 H28        -8.9660    2.1200    0.9220 ha        1 719      0.144500
     55 H29        -8.2380   -0.6880    3.8730 ha        1 719      0.155500
     56 HO30       -0.4290   -2.0780   -1.5120 ho        1 719      0.244000
     57 HO31       -3.5550    4.2650    2.3380 ho        1 719      0.251000
     58 HO32       -6.1830    5.1300    3.7780 ho        1 719      0.235000
     59 H34       -11.2980    1.8850    1.2710 ha        1 719      0.144500
     60 H35       -10.5850   -0.9260    4.2220 ha        1 719      0.154000
     61 H37        -1.4040    0.5220    0.0250 h4        1 719      0.111000
     62 H37A       -0.5150    1.6410    0.6610 h4        1 719      0.111000
     63 HN38        8.8480   -0.1830   -2.8420 hn        1 719      0.237000
     64 H39        10.4720   -2.0770   -2.1890 h1        1 719      0.116000
     65 H39A        9.7800   -2.8260   -3.4070 h1        1 719      0.116000
     66 HA         10.9690   -0.2430   -3.7420 h1        1 719      0.071500
     67 HAA        10.6020   -1.3120   -4.8970 h1        1 719      0.071500
     68 HOB        12.6900   -1.4530   -4.5630 ho        1 719      0.203000
@<TRIPOS>BOND
     1    1    3 1   
     2    1    8 1   
     3    2    6 1   
     4    2    9 1   
     5    2   42 1   
     6    3   15 1   
     7    4   19 1   
     8    5    8 1   
     9    6   10 1   
    10    6   25 1   
    11    6   43 1   
    12    7   11 1   
    13    7   14 1   
    14    9   13 1   
    15   10   13 1   
    16   10   30 1   
    17   10   45 1   
    18   11   31 1   
    19   12   16 1   
    20   12   46 1   
    21   13   23 1   
    22   13   47 1   
    23   14   24 1   
    24   14   26 1   
    25   17   18 1   
    26   17   32 1   
    27   18   48 1   
    28   19   38 1   
    29   20   21 1   
    30   21   49 1   
    31   22   29 1   
    32   23   27 1   
    33   23   50 1   
    34   25   51 1   
    35   26   37 1   
    36   26   52 1   
    37   27   53 1   
    38   28   34 1   
    39   28   54 1   
    40   29   55 1   
    41   30   56 1   
    42   31   57 1   
    43   32   58 1   
    44   33   35 1   
    45   33   36 1   
    46   34   59 1   
    47   35   60 1   
    48   37   61 1   
    49   37   62 1   
    50   38   39 1   
    51   38   63 1   
    52   39   40 1   
    53   39   64 1   
    54   39   65 1   
    55   40   41 1   
    56   40   66 1   
    57   40   67 1   
    58   41   68 1   
@<TRIPOS>SUBSTRUCTURE
     1 719         1 TEMP              0 ****  ****    0 ROOT
