@<TRIPOS>MOLECULE
71S
   57    74     1     0     0
SMALL
bcc


@<TRIPOS>ATOM
      1 N22         0.0000    0.0000    0.0000 n8        1 71S     -0.105000
      2 C22         1.3900    0.0000    0.0000 DU        1 71S     -0.012000
      3 C23         2.0790    0.0000    1.2090 c2        1 71S     -0.472000
      4 C24         3.4620   -0.0000    1.1950 DU        1 71S      0.046000
      5 C27         4.2460   -0.0010    2.4830 c3        1 71S     -0.386000
      6 C25         4.1120   -0.0000   -0.0320 c2        1 71S     -0.492000
      7 N21         2.0470   -0.0060   -1.1500 n2        1 71S     -0.054000
      8 C26         3.3660   -0.0010   -1.1930 c3        1 71S     -0.032000
      9 C28         4.0660   -0.0020   -2.5280 DU        1 71S     -0.219000
     10 C29         3.5690   -1.1830   -3.3630 DU        1 71S     -0.096000
     11 C15         4.1770   -1.1150   -4.7400 c2        1 71S     -0.072000
     12 C14         5.5490   -1.1510   -4.9030 c2        1 71S     -0.225000
     13 C12         5.3460   -0.9960   -7.1930 c2        1 71S     -0.152000
     14 C16         3.3650   -1.0210   -5.8610 c2        1 71S      0.083000
     15 C11         3.9680   -0.9600   -7.1090 DU        1 71S     -0.154000
     16 C09         3.1290   -0.8520   -8.3560 DU        1 71S     -0.195000
     17 C08         2.8040   -2.2540   -8.8740 c3        1 71S     -0.544000
     18 C06         1.9640   -2.1460  -10.1230 c3        1 71S     -0.195000
     19 N01         0.8410   -1.4550  -10.0950 n2        1 71S     -0.033000
     20 C02         0.0740   -1.3320  -11.1660 c2        1 71S      0.083000
     21 N02        -1.1020   -0.5950  -11.0910 n8        1 71S     -0.139000
     22 C03         0.4340   -1.9360  -12.3670 c2        1 71S     -0.389000
     23 C04         1.6060   -2.6670  -12.4270 c3        1 71S      0.085000
     24 C05         2.3850   -2.7670  -11.2810 c2        1 71S     -0.305000
     25 C07         2.0320   -3.3370  -13.7090 c3        1 71S     -0.290000
     26 C18         3.9820   -2.4940   -2.6890 DU        1 71S     -0.822000
     27 N11         6.0870   -1.0900   -6.1060 n2        1 71S      0.117000
     28 H221        0.5470   -0.6600   -0.5160 DU        1 71S      0.127000
     29 H222       -0.5000   -0.8620    0.0910 hn        1 71S      0.163000
     30 H23         1.1540    0.3100    0.7380 DU        1 71S      0.357000
     31 H271        3.1730    0.0680    2.3470 DU        1 71S      0.311000
     32 H272        3.5620   -0.0290    3.3220 hc        1 71S      0.165000
     33 H273        4.8490    0.8970    2.5380 hc        1 71S      0.165000
     34 H25         4.4140   -0.3390    0.9520 DU        1 71S      0.405000
     35 H281        4.5170   -0.0600   -1.5440 DU        1 71S      0.507000
     36 H282        5.1350   -0.0910   -2.3750 ha        1 71S      0.209000
     37 H29         3.7110   -0.1210   -3.2070 DU        1 71S      0.214000
     38 H181        3.2290   -1.8140   -3.0680 DU        1 71S      0.199000
     39 H182        4.8020   -2.9400   -3.2390 hx        1 71S      0.196000
     40 H14         5.1780   -1.4890   -3.9430 h4        1 71S      0.252000
     41 H16         4.2720   -1.0880   -5.2730 ha        1 71S     -0.123000
     42 HA1         3.0920   -2.2320   -2.2970 DU        1 71S      0.230000
     43 HB2         3.0720   -3.0880   -2.2500 DU        1 71S      0.357000
     44 H12         4.7550   -1.3360   -6.3510 DU        1 71S      0.217000
     45 H091        4.2090   -0.8910   -8.2810 DU        1 71S      0.318000
     46 H092        3.6780   -0.3050   -9.1140 ha        1 71S      0.189000
     47 H081        2.5020   -1.2840   -8.4980 DU        1 71S      0.303000
     48 H082        3.7240   -2.7780   -9.1020 hc        1 71S      0.119000
     49 H05         2.3400   -2.7800  -10.1990 DU        1 71S      0.344000
     50 H021       -0.2340   -1.0800  -10.9790 hn        1 71S      0.049000
     51 H022       -1.6800   -0.4900  -11.9020 hn        1 71S      0.049000
     52 H03        -0.1550   -1.3560  -11.6670 ha        1 71S      0.215000
     53 H071        1.1460   -2.7410  -13.5250 DU        1 71S      0.190000
     54 H072        3.0220   -3.1180  -14.0910 hc        1 71S      0.104500
     55 H073        1.7010   -4.3540  -13.8830 hc        1 71S      0.104500
     56 N18         3.2950   -2.6170   -1.3960 nz        1 71S     -0.116000
     57 H183        3.1220   -3.5340   -1.7580 DU        1 71S      0.148000
@<TRIPOS>BOND
     1    1    2 1   
     2    1   28 1   
     3    1   29 1   
     4    2    3 1   
     5    2    7 1   
     6    2   28 1   
     7    2   30 1   
     8    3    4 1   
     9    3   30 1   
    10    4    5 1   
    11    4    6 1   
    12    4   31 1   
    13    4   34 1   
    14    5   31 1   
    15    5   32 1   
    16    5   33 1   
    17    6    8 1   
    18    6   34 1   
    19    7    8 1   
    20    8    9 1   
    21    8   35 1   
    22    9   10 1   
    23    9   35 1   
    24    9   36 1   
    25    9   37 1   
    26   10   11 1   
    27   10   26 1   
    28   10   37 1   
    29   10   38 1   
    30   11   12 1   
    31   11   14 1   
    32   12   27 1   
    33   12   40 1   
    34   13   15 1   
    35   13   27 1   
    36   13   44 1   
    37   14   15 1   
    38   14   41 1   
    39   15   16 1   
    40   15   44 1   
    41   15   45 1   
    42   16   17 1   
    43   16   45 1   
    44   16   46 1   
    45   16   47 1   
    46   17   18 1   
    47   17   47 1   
    48   17   48 1   
    49   18   19 1   
    50   18   24 1   
    51   18   49 1   
    52   19   20 1   
    53   20   21 1   
    54   20   22 1   
    55   21   50 1   
    56   21   51 1   
    57   22   23 1   
    58   22   52 1   
    59   23   24 1   
    60   23   25 1   
    61   23   53 1   
    62   24   49 1   
    63   25   53 1   
    64   25   54 1   
    65   25   55 1   
    66   26   38 1   
    67   26   39 1   
    68   26   42 1   
    69   26   43 1   
    70   26   56 1   
    71   42   56 1   
    72   43   56 1   
    73   43   57 1   
    74   56   57 1   
@<TRIPOS>SUBSTRUCTURE
     1 71S         1 TEMP              0 ****  ****    0 ROOT
