@<TRIPOS>MOLECULE
71S
   59    60     1     0     0
SMALL
bcc


@<TRIPOS>ATOM
      1 N22        -0.7380   -1.8190    0.3450 n4        1 71S     -0.820300
      2 C22         0.4420   -1.0360   -0.0900 ca        1 71S      0.460200
      3 C23         0.8980    0.0060    0.7360 ca        1 71S     -0.205300
      4 C24         2.0280    0.7280    0.3040 ca        1 71S      0.016700
      5 C27         2.5540    1.8320    1.1360 c3        1 71S     -0.086800
      6 C25         2.6250    0.3720   -0.9060 ca        1 71S     -0.198300
      7 N21         1.0090   -1.3990   -1.2760 nb        1 71S     -0.669000
      8 C26         2.0930   -0.6980   -1.6710 ca        1 71S      0.479600
      9 C28         2.7530   -1.0350   -2.9830 c3        1 71S     -0.123700
     10 C29         3.1810   -2.4900   -3.0940 c3        1 71S     -0.034500
     11 C15         3.7380   -2.8400   -4.4340 c2        1 71S     -0.121300
     12 C14         7.8600   -1.3220   -5.4600 c2        1 71S      0.587800
     13 C12         5.7200   -0.8170   -6.7230 ce        1 71S      0.619200
     14 C16         4.0650   -2.0580   -5.4210 c1        1 71S      0.046200
     15 C11         4.3810   -1.3530   -6.4900 ce        1 71S     -0.277900
     16 C09         3.3850   -1.0250   -7.5630 c3        1 71S     -0.035200
     17 C08         3.6760   -1.7940   -8.8420 c3        1 71S     -0.140700
     18 C06         2.6780   -1.4810   -9.9260 ca        1 71S      0.444600
     19 N01         3.0590   -0.7020  -10.9590 nb        1 71S     -0.668000
     20 C02         2.1460   -0.5070  -11.9550 ca        1 71S      0.459200
     21 N02         2.5910    0.3120  -13.1060 n4        1 71S     -0.819300
     22 C03         0.8450   -1.0400  -11.9630 ca        1 71S     -0.198300
     23 C04         0.4610   -1.8390  -10.8680 ca        1 71S      0.017700
     24 C05         1.3860   -2.0600   -9.8460 ca        1 71S     -0.204300
     25 C07        -0.8910   -2.4380  -10.8340 c3        1 71S     -0.088800
     26 C18         4.2370   -2.8630   -2.0260 c3        1 71S      0.170800
     27 N11         6.7800   -1.0810   -6.0620 n1        1 71S     -0.534800
     28 H221       -0.4190   -2.6470    0.8640 hn        1 71S      0.474800
     29 H222       -1.3200   -1.2360    0.9580 hn        1 71S      0.474800
     30 H23         0.4120    0.2710    1.6880 ha        1 71S      0.179000
     31 H271        2.9890    1.4240    2.0850 hc        1 71S      0.082033
     32 H272        3.3530    2.4020    0.6010 hc        1 71S      0.082033
     33 H273        1.7340    2.5460    1.4090 hc        1 71S      0.082033
     34 H25         3.5100    0.9190   -1.2660 ha        1 71S      0.169000
     35 H281        3.6490   -0.3700   -3.1100 hc        1 71S      0.065200
     36 H282        2.0320   -0.7980   -3.8140 hc        1 71S      0.065200
     37 H29         8.1840   -0.6960   -4.5940 h4        1 71S      0.077300
     38 H181        2.2690   -3.1450   -2.9530 hc        1 71S      0.103700
     39 H182        5.0520   -2.0860   -2.0490 h1        1 71S      0.038700
     40 H14         8.5230   -2.1600   -5.7870 h4        1 71S      0.077300
     41 H16         3.8850   -3.9370   -4.5780 ha        1 71S      0.191000
     42 HA1         3.1240   -3.7220   -0.5640 hn        1 71S      0.372800
     43 HB2         4.4100   -2.8790   -0.0100 hn        1 71S      0.372800
     44 H12         5.8290   -0.1040   -7.5840 h4        1 71S      0.078800
     45 H091        3.4070    0.0800   -7.7670 hc        1 71S      0.078200
     46 H092        2.3520   -1.2760   -7.2010 hc        1 71S      0.078200
     47 H081        3.6240   -2.8990   -8.6430 hc        1 71S      0.077700
     48 H082        4.7210   -1.5670   -9.1890 hc        1 71S      0.077700
     49 H05         1.1250   -2.6930   -8.9830 ha        1 71S      0.174000
     50 H021        3.2740   -0.2200  -13.6630 hn        1 71S      0.478133
     51 H022        1.7800    0.5420  -13.6910 hn        1 71S      0.478133
     52 H03         0.1310   -0.8630  -12.7850 ha        1 71S      0.184000
     53 H071       -0.9540   -3.2800  -11.5730 hc        1 71S      0.084700
     54 H072       -1.6690   -1.6800  -11.1070 hc        1 71S      0.084700
     55 H073       -1.1310   -2.8450   -9.8210 hc        1 71S      0.084700
     56 N18         3.6820   -2.9020   -0.6970 n3        1 71S     -0.931800
     57 H223       -1.2950   -2.1260   -0.4630 hn        1 71S      0.474800
     58 H023        3.0350    1.1810  -12.7810 hn        1 71S      0.478133
     59 H183        4.7000   -3.8480   -2.3310 h1        1 71S      0.038700
@<TRIPOS>BOND
     1    1    2 1   
     2    1   28 1   
     3    1   29 1   
     4    1   57 1   
     5    2    3 ar  
     6    2    7 ar  
     7    3    4 ar  
     8    3   30 1   
     9    4    5 1   
    10    4    6 ar  
    11    5   31 1   
    12    5   32 1   
    13    5   33 1   
    14    6    8 ar  
    15    6   34 1   
    16    7    8 ar  
    17    8    9 1   
    18    9   10 1   
    19    9   35 1   
    20    9   36 1   
    21   10   11 1   
    22   10   26 1   
    23   10   38 1   
    24   11   14 2   
    25   11   41 1   
    26   12   27 2   
    27   12   37 1   
    28   12   40 1   
    29   13   15 1   
    30   13   27 2   
    31   13   44 1   
    32   14   15 2   
    33   15   16 1   
    34   16   17 1   
    35   16   45 1   
    36   16   46 1   
    37   17   18 1   
    38   17   47 1   
    39   17   48 1   
    40   18   19 ar  
    41   18   24 ar  
    42   19   20 ar  
    43   20   21 1   
    44   20   22 ar  
    45   21   50 1   
    46   21   51 1   
    47   21   58 1   
    48   22   23 ar  
    49   22   52 1   
    50   23   24 ar  
    51   23   25 1   
    52   24   49 1   
    53   25   53 1   
    54   25   54 1   
    55   25   55 1   
    56   26   39 1   
    57   26   56 1   
    58   26   59 1   
    59   42   56 1   
    60   43   56 1   
@<TRIPOS>SUBSTRUCTURE
     1 71S         1 TEMP              0 ****  ****    0 ROOT
