@<TRIPOS>MOLECULE
720
   38    38     1     0     0
SMALL
bcc


@<TRIPOS>ATOM
      1 N           1.4600    0.8180    0.0810 n4        1 720     -0.881600
      2 CA          2.4800   -0.1440   -0.4030 c3        1 720      0.121800
      3 CG          7.1610   -1.3350    4.8440 cc        1 720      0.382400
      4 CE1         7.8790   -2.3090    9.4230 c3        1 720     -0.095100
      5 CE2         6.8280   -2.2940    7.1680 c3        1 720      0.040300
      6 CZ          7.4900   -1.4420    8.2550 c3        1 720     -0.103400
      7 CH          3.0380   -1.0570    0.6880 c3        1 720     -0.106400
      8 CM          3.9520   -0.3590    1.6780 c3        1 720     -0.076400
      9 CA2         3.2970   -0.1580    3.0430 c3        1 720     -0.158700
     10 CB2         4.2110    0.6000    3.9920 c3        1 720     -0.084700
     11 CG2         5.2670   -0.2530    4.5820 cd        1 720      0.306600
     12 CD3         5.2090   -0.8710    5.8500 cc        1 720     -0.252600
     13 N2          6.4920   -0.5560    3.9700 nd        1 720     -0.675000
     14 C           2.0010    0.6170    2.8110 c         1 720      0.891600
     15 N1          6.4090   -1.5690    6.0060 na        1 720     -0.208900
     16 O           0.9160   -0.0340    2.6640 o         1 720     -0.854300
     17 OXT         2.0410    1.8670    2.5750 o         1 720     -0.854300
     18 HN1         0.7970    0.3440    0.7410 hn        1 720      0.475467
     19 HN2         0.9550    1.2320   -0.6940 hn        1 720      0.475467
     20 HAC1        1.9960   -0.7810   -1.1980 hx        1 720      0.072700
     21 HAC2        3.3170    0.4470   -0.8730 hx        1 720      0.072700
     22 HHC1        3.6090   -1.8620    0.1520 hc        1 720      0.079200
     23 HHC2        2.1900   -1.5510    1.2410 hc        1 720      0.079200
     24 HE21        5.9240   -2.8040    7.6090 h1        1 720      0.057700
     25 HE22        7.5550   -3.0910    6.8390 h1        1 720      0.057700
     26 HZC1        6.7830   -0.6400    8.5930 hc        1 720      0.054200
     27 HZC2        8.3980   -0.9310    7.8400 hc        1 720      0.054200
     28 HE11        8.6010   -3.1010    9.1080 hc        1 720      0.037700
     29 HE12        6.9820   -2.8080    9.8640 hc        1 720      0.037700
     30 HE13        8.3620   -1.6880   10.2160 hc        1 720      0.037700
     31 HG          8.1570   -1.7580    4.6910 h5        1 720      0.054100
     32 HMC1        4.8810   -0.9740    1.8130 hc        1 720      0.056200
     33 HMC2        4.2710    0.6390    1.2780 hc        1 720      0.056200
     34 HA2         3.0410   -1.1590    3.4830 hc        1 720      0.064700
     35 HB21        3.5840    1.0190    4.8260 hc        1 720      0.064200
     36 HB22        4.6660    1.4730    3.4530 hc        1 720      0.064200
     37 HD3         4.4280   -0.8670    6.6070 h4        1 720      0.179000
     38 HN3         1.9080    1.5680    0.6590 hn        1 720      0.475467
@<TRIPOS>BOND
     1    1    2 1   
     2    1   18 1   
     3    1   19 1   
     4    1   38 1   
     5    2    7 1   
     6    2   20 1   
     7    2   21 1   
     8    3   13 2   
     9    3   15 1   
    10    3   31 1   
    11    4    6 1   
    12    4   28 1   
    13    4   29 1   
    14    4   30 1   
    15    5    6 1   
    16    5   15 1   
    17    5   24 1   
    18    5   25 1   
    19    6   26 1   
    20    6   27 1   
    21    7    8 1   
    22    7   22 1   
    23    7   23 1   
    24    8    9 1   
    25    8   32 1   
    26    8   33 1   
    27    9   10 1   
    28    9   14 1   
    29    9   34 1   
    30   10   11 1   
    31   10   35 1   
    32   10   36 1   
    33   11   12 2   
    34   11   13 1   
    35   12   15 1   
    36   12   37 1   
    37   14   16 1   
    38   14   17 1   
@<TRIPOS>SUBSTRUCTURE
     1 720         1 TEMP              0 ****  ****    0 ROOT
