@<TRIPOS>MOLECULE
720
   38    38     1     0     0
SMALL
bcc


@<TRIPOS>ATOM
      1 N          -0.0480   -0.1180    0.8920 n3        1 720     -0.914800
      2 CA          1.3670    0.1640    0.9360 c3        1 720      0.147800
      3 CG          6.4330    0.5140    5.8720 cc        1 720      0.396400
      4 CE1         6.9600   -2.6600    9.3570 c3        1 720     -0.095100
      5 CE2         7.3550   -1.4130    7.2410 c3        1 720      0.038300
      6 CZ          6.3010   -2.0690    8.1370 c3        1 720     -0.102400
      7 CH          2.2320   -1.0940    0.8720 c3        1 720     -0.082400
      8 CM          3.7080   -0.7620    0.9310 c3        1 720     -0.080400
      9 CA2         4.1650   -0.2850    2.3070 c3        1 720     -0.101700
     10 CB2         5.6030   -0.7260    2.5740 c3        1 720     -0.089700
     11 CG2         6.0160   -0.5070    3.9750 cd        1 720      0.287600
     12 CD3         6.5640   -1.4770    4.8420 cc        1 720     -0.245600
     13 N2          5.9440    0.7280    4.6360 nd        1 720     -0.661000
     14 C           4.0870    1.2170    2.3800 c         1 720      0.656100
     15 N1          6.8400   -0.8200    6.0430 na        1 720     -0.205900
     16 O           3.2410    1.6850    3.3410 oh        1 720     -0.600100
     17 OXT         4.6560    2.0610    1.6810 o         1 720     -0.559000
     18 HN1         3.3110    2.6520    3.3890 ho        1 720      0.440000
     19 HN2        -0.2860   -0.6330    0.0680 hn        1 720      0.347300
     20 HAC1        1.5780    0.6950    1.9110 h1        1 720      0.033700
     21 HAC2        1.6960    0.8570    0.1040 h1        1 720      0.033700
     22 HHC1        2.0280   -1.6410   -0.0870 hc        1 720      0.047700
     23 HHC2        1.9600   -1.7840    1.7140 hc        1 720      0.047700
     24 HE21        8.1170   -2.1920    6.9480 h1        1 720      0.060200
     25 HE22        7.8830   -0.6090    7.8290 h1        1 720      0.060200
     26 HZC1        5.5360   -1.3100    8.4470 hc        1 720      0.054700
     27 HZC2        5.7630   -2.8720    7.5680 hc        1 720      0.054700
     28 HE11        7.4830   -1.8700    9.9480 hc        1 720      0.039033
     29 HE12        7.7090   -3.4360    9.0680 hc        1 720      0.039033
     30 HE13        6.1920   -3.1390   10.0110 hc        1 720      0.039033
     31 HG          6.5290    1.2660    6.6610 h5        1 720      0.061100
     32 HMC1        3.9600    0.0170    0.1630 hc        1 720      0.055700
     33 HMC2        4.2820   -1.6890    0.6610 hc        1 720      0.055700
     34 HA2         3.4930   -0.7160    3.1030 hc        1 720      0.090700
     35 HB21        5.6960   -1.8210    2.3410 hc        1 720      0.063200
     36 HB22        6.2920   -0.1640    1.8850 hc        1 720      0.063200
     37 HD3         6.7750   -2.5320    4.6900 h4        1 720      0.176000
     38 HN3        -0.5710    0.7340    0.9100 hn        1 720      0.347300
@<TRIPOS>BOND
     1    1    2 1   
     2    1   19 1   
     3    1   38 1   
     4    2    7 1   
     5    2   20 1   
     6    2   21 1   
     7    3   13 2   
     8    3   15 1   
     9    3   31 1   
    10    4    6 1   
    11    4   28 1   
    12    4   29 1   
    13    4   30 1   
    14    5    6 1   
    15    5   15 1   
    16    5   24 1   
    17    5   25 1   
    18    6   26 1   
    19    6   27 1   
    20    7    8 1   
    21    7   22 1   
    22    7   23 1   
    23    8    9 1   
    24    8   32 1   
    25    8   33 1   
    26    9   10 1   
    27    9   14 1   
    28    9   34 1   
    29   10   11 1   
    30   10   35 1   
    31   10   36 1   
    32   11   12 2   
    33   11   13 1   
    34   12   15 1   
    35   12   37 1   
    36   14   16 1   
    37   14   17 2   
    38   16   18 1   
@<TRIPOS>SUBSTRUCTURE
     1 720         1 TEMP              0 ****  ****    0 ROOT
