@<TRIPOS>MOLECULE
720
   37    37     1     0     0
SMALL
bcc


@<TRIPOS>ATOM
      1 N           2.2370   -5.3220   -2.0600 n3        1 720     -0.908800
      2 CA          1.2080   -4.3140   -2.1810 c3        1 720      0.141800
      3 CG         -2.4130    1.8800    2.0760 cc        1 720      0.343400
      4 CE1        -3.1560    1.0010    6.6470 c3        1 720     -0.090100
      5 CE2        -1.9810    1.1130    4.4530 c3        1 720      0.051300
      6 CZ         -3.3010    0.7910    5.1630 c3        1 720     -0.108400
      7 CH          0.7730   -3.6370   -0.8830 c3        1 720     -0.117400
      8 CM         -0.3560   -2.6610   -1.1330 c3        1 720     -0.050400
      9 CA2        -0.8280   -2.0300    0.1660 c3        1 720     -0.188700
     10 CB2        -1.8620   -0.9510   -0.1270 c3        1 720     -0.079700
     11 CG2        -1.9920    0.0230    0.9820 cd        1 720      0.295600
     12 CD3        -1.7490   -0.2510    2.3450 cc        1 720     -0.222600
     13 N2         -2.4020    1.3580    0.8340 nd        1 720     -0.682000
     14 C          -1.4210   -3.1220    1.0930 c         1 720      0.911600
     15 N1         -2.0020    0.9370    3.0360 na        1 720     -0.220900
     16 O          -2.2990   -3.9020    0.6330 o         1 720     -0.848300
     17 OXT        -0.9820   -3.1820    2.2820 o         1 720     -0.848300
     18 HN1         1.9000   -6.0890   -1.5080 hn        1 720      0.333800
     19 HN2         3.0370   -4.9400   -1.5930 hn        1 720      0.333800
     20 HAC1        0.3070   -4.7960   -2.6570 h1        1 720      0.041200
     21 HAC2        1.5860   -3.5270   -2.8940 h1        1 720      0.041200
     22 HHC1        1.6440   -3.0990   -0.4240 hc        1 720      0.050200
     23 HHC2        0.4210   -4.4030   -0.1400 hc        1 720      0.050200
     24 HE21       -1.1760    0.4450    4.8770 h1        1 720      0.049700
     25 HE22       -1.7050    2.1840    4.6740 h1        1 720      0.049700
     26 HZC1       -3.5900   -0.2730    4.9540 hc        1 720      0.057200
     27 HZC2       -4.1190    1.4440    4.7620 hc        1 720      0.057200
     28 HE11       -2.3620    0.3350    7.0650 hc        1 720      0.029367
     29 HE12       -4.1180    0.7680    7.1640 hc        1 720      0.029367
     30 HE13       -2.8810    2.0590    6.8740 hc        1 720      0.029367
     31 HG         -2.6810    2.9050    2.3380 h5        1 720      0.035100
     32 HMC1       -1.2220   -3.2020   -1.5990 hc        1 720      0.029200
     33 HMC2       -0.0160   -1.8670   -1.8500 hc        1 720      0.029200
     34 HA2         0.0510   -1.5690    0.6930 hc        1 720      0.040700
     35 HB21       -2.8590   -1.4460   -0.2940 hc        1 720      0.045700
     36 HB22       -1.5920   -0.4090   -1.0730 hc        1 720      0.045700
     37 HD3        -1.4200   -1.1910    2.8130 h4        1 720      0.246000
@<TRIPOS>BOND
     1    1    2 1   
     2    1   18 1   
     3    1   19 1   
     4    2    7 1   
     5    2   20 1   
     6    2   21 1   
     7    3   13 2   
     8    3   15 1   
     9    3   31 1   
    10    4    6 1   
    11    4   28 1   
    12    4   29 1   
    13    4   30 1   
    14    5    6 1   
    15    5   15 1   
    16    5   24 1   
    17    5   25 1   
    18    6   26 1   
    19    6   27 1   
    20    7    8 1   
    21    7   22 1   
    22    7   23 1   
    23    8    9 1   
    24    8   32 1   
    25    8   33 1   
    26    9   10 1   
    27    9   14 1   
    28    9   34 1   
    29   10   11 1   
    30   10   35 1   
    31   10   36 1   
    32   11   12 2   
    33   11   13 1   
    34   12   15 1   
    35   12   37 1   
    36   14   16 1   
    37   14   17 1   
@<TRIPOS>SUBSTRUCTURE
     1 720         1 TEMP              0 ****  ****    0 ROOT
