@<TRIPOS>MOLECULE
720
   38    38     1     0     0
SMALL
bcc


@<TRIPOS>ATOM
      1 N           0.9480   -0.0860    1.6670 nz        1 720     -0.882600
      2 CA          1.5790   -0.2820    0.3400 c3        1 720      0.121800
      3 CG          7.9760   -0.5280    5.3500 cc        1 720      0.374400
      4 CE1         6.2240   -1.9950    9.4900 c3        1 720     -0.094100
      5 CE2         6.7230   -1.9310    7.0530 c3        1 720      0.042300
      6 CZ          6.3120   -1.1070    8.2770 c3        1 720     -0.104400
      7 CH          2.9620   -0.9270    0.3960 c3        1 720     -0.103400
      8 CM          4.0640   -0.0190    0.9140 c3        1 720     -0.074400
      9 CA2         4.4990   -0.3860    2.3320 c3        1 720     -0.167700
     10 CB2         5.6270    0.5190    2.7980 c3        1 720     -0.082700
     11 CG2         6.3530   -0.0650    3.9470 cd        1 720      0.292600
     12 CD3         5.7940   -0.8820    4.9530 cc        1 720     -0.232600
     13 N2          7.7160    0.1430    4.2110 nd        1 720     -0.671000
     14 C           3.2620   -0.2690    3.2200 c         1 720      0.890600
     15 N1          6.8320   -1.1860    5.8350 na        1 720     -0.209900
     16 O           2.6200   -1.3270    3.5230 o         1 720     -0.854800
     17 OXT         2.7760    0.8770    3.4880 o         1 720     -0.854800
     18 HN1         1.3930    0.7210    2.1710 hn        1 720      0.476467
     19 HN2        -0.0500    0.0710    1.5750 hn        1 720      0.476467
     20 HAC1        0.8960   -0.9430   -0.2670 hx        1 720      0.074200
     21 HAC2        1.6470    0.7250   -0.1620 hx        1 720      0.074200
     22 HHC1        2.9210   -1.8610    1.0230 hc        1 720      0.077200
     23 HHC2        3.1990   -1.2370   -0.6570 hc        1 720      0.077200
     24 HE21        7.7220   -2.4140    7.2590 h1        1 720      0.056700
     25 HE22        5.9620   -2.7490    6.8970 h1        1 720      0.056700
     26 HZC1        7.0590   -0.2900    8.4560 hc        1 720      0.056200
     27 HZC2        5.3210   -0.6170    8.0890 hc        1 720      0.056200
     28 HE11        5.9260   -1.3950   10.3830 hc        1 720      0.036033
     29 HE12        5.4650   -2.8010    9.3380 hc        1 720      0.036033
     30 HE13        7.2100   -2.4770    9.7030 hc        1 720      0.036033
     31 HG          8.9460   -0.5870    5.8510 h5        1 720      0.052100
     32 HMC1        3.7290    1.0520    0.9050 hc        1 720      0.049200
     33 HMC2        4.9510   -0.1000    0.2320 hc        1 720      0.049200
     34 HA2         4.8470   -1.4550    2.3450 hc        1 720      0.067700
     35 HB21        6.3380    0.7060    1.9490 hc        1 720      0.061200
     36 HB22        5.1940    1.5120    3.1070 hc        1 720      0.061200
     37 HD3         4.7720   -1.2500    5.0710 h4        1 720      0.204000
     38 HN3         1.1320   -0.9100    2.2870 hn        1 720      0.476467
@<TRIPOS>BOND
     1    1    2 1   
     2    1   18 1   
     3    1   19 1   
     4    1   38 1   
     5    2    7 1   
     6    2   20 1   
     7    2   21 1   
     8    3   13 2   
     9    3   15 1   
    10    3   31 1   
    11    4    6 1   
    12    4   28 1   
    13    4   29 1   
    14    4   30 1   
    15    5    6 1   
    16    5   15 1   
    17    5   24 1   
    18    5   25 1   
    19    6   26 1   
    20    6   27 1   
    21    7    8 1   
    22    7   22 1   
    23    7   23 1   
    24    8    9 1   
    25    8   32 1   
    26    8   33 1   
    27    9   10 1   
    28    9   14 1   
    29    9   34 1   
    30   10   11 1   
    31   10   35 1   
    32   10   36 1   
    33   11   12 2   
    34   11   13 1   
    35   12   15 1   
    36   12   37 1   
    37   14   16 1   
    38   14   17 1   
@<TRIPOS>SUBSTRUCTURE
     1 720         1 TEMP              0 ****  ****    0 ROOT
