@<TRIPOS>MOLECULE
720
   37    35     1     0     0
SMALL
bcc


@<TRIPOS>ATOM
      1 N          -4.7220   -3.0980    2.2300 n3        1 720     -0.907800
      2 CA         -3.8280   -3.3070    1.1270 c3        1 720      0.142800
      3 CG          1.6490    2.0490   -1.7150 c1        1 720      0.098400
      4 CE1         4.8240    3.5610    1.3470 c3        1 720     -0.092100
      5 CE2         3.5990    2.0280   -0.2760 c3        1 720      0.050300
      6 CZ          3.4650    2.8690    1.0210 c3        1 720     -0.107400
      7 CH         -3.1380   -1.9700    0.7650 c3        1 720     -0.130400
      8 CM         -2.1980   -2.1810   -0.3980 c3        1 720     -0.050400
      9 CA2        -1.4850   -0.8850   -0.7190 c3        1 720     -0.191700
     10 CB2        -0.1390   -1.1860   -1.2650 c3        1 720      0.006800
     11 CG2         0.7470    0.1050   -1.2130 ce        1 720     -0.008700
     12 CD3         1.7830    0.3410   -0.3350 c1        1 720     -0.112900
     13 N2          0.6700    1.1590   -2.0590 ne        1 720     -0.510000
     14 C          -2.3050   -0.0860   -1.7690 c         1 720      0.914600
     15 N1          2.3310    1.5350   -0.6500 n3        1 720     -0.160700
     16 O          -3.1140   -0.7030   -2.5540 o         1 720     -0.843800
     17 OXT        -2.2270    1.1820   -1.8070 o         1 720     -0.843800
     18 HN1        -4.3300   -2.5420    2.8370 hn        1 720      0.333800
     19 HN2        -5.4740   -2.7300    1.9350 hn        1 720      0.333800
     20 HAC1       -3.1400   -3.9780    1.3800 h1        1 720      0.039200
     21 HAC2       -4.3360   -3.6330    0.3540 h1        1 720      0.039200
     22 HHC1       -2.6390   -1.6520    1.5260 hc        1 720      0.059200
     23 HHC2       -3.8030   -1.3200    0.5260 hc        1 720      0.059200
     24 HE21        4.1950    1.2900   -0.1210 h1        1 720      0.049200
     25 HE22        3.9460    2.5770   -0.9760 h1        1 720      0.049200
     26 HZC1        3.2210    2.3030    1.7410 hc        1 720      0.055200
     27 HZC2        2.7590    3.5680    0.8900 hc        1 720      0.055200
     28 HE11        5.0460    4.1840    0.6430 hc        1 720      0.032033
     29 HE12        5.5520    2.8630    1.4210 hc        1 720      0.032033
     30 HE13        4.7470    4.0360    2.1850 hc        1 720      0.032033
     31 HG          1.8350    2.9360   -2.1700 DU        1 720      0.179000
     32 HMC1       -1.5340   -2.8680   -0.1620 hc        1 720      0.024700
     33 HMC2       -2.7130   -2.4780   -1.1890 hc        1 720      0.024700
     34 HA2        -1.3930   -0.3590    0.0850 hc        1 720      0.032700
     35 HB21       -0.2210   -1.4850   -2.1870 hc        1 720      0.069200
     36 HB22        0.2550   -1.8560   -0.7580 hc        1 720      0.069200
     37 HD3         2.1150   -0.2680    0.3080 DU        1 720      0.179000
@<TRIPOS>BOND
     1    1    2 1   
     2    1   18 1   
     3    1   19 1   
     4    2    7 1   
     5    2   20 1   
     6    2   21 1   
     7    3   13 2   
     8    3   15 2   
     9    4    6 1   
    10    4   28 1   
    11    4   29 1   
    12    4   30 1   
    13    5    6 1   
    14    5   15 1   
    15    5   24 1   
    16    5   25 1   
    17    6   26 1   
    18    6   27 1   
    19    7    8 1   
    20    7   22 1   
    21    7   23 1   
    22    8    9 1   
    23    8   32 1   
    24    8   33 1   
    25    9   10 1   
    26    9   14 1   
    27    9   34 1   
    28   10   11 1   
    29   10   35 1   
    30   10   36 1   
    31   11   12 2   
    32   11   13 1   
    33   12   15 2   
    34   14   16 1   
    35   14   17 1   
@<TRIPOS>SUBSTRUCTURE
     1 720         1 TEMP              0 ****  ****    0 ROOT
