@<TRIPOS>MOLECULE
721
   37    37     1     0     0
SMALL
bcc


@<TRIPOS>ATOM
      1 O6          0.7450    0.2720    3.1530 o         1 721     -0.924500
      2 P2          1.9770    0.1820    2.3070 p5        1 721      2.119000
      3 O5          2.8360    1.5140    3.0700 os        1 721     -0.738000
      4 O4          2.9000   -0.9470    2.6090 o         1 721     -0.924500
      5 C1          1.9540    0.7190    0.7930 c2        1 721     -1.455000
      6 P1          0.8010    0.1990   -1.0420 p3        1 721      2.559000
      7 O3         -0.4220    1.0570   -0.9740 o         1 721     -1.222000
      8 O2          1.8280    0.6600   -2.0300 o         1 721     -1.222000
      9 O1          0.5870   -1.2730   -0.9540 o         1 721     -1.222000
     10 C2          1.5810    2.1220    0.5580 c3        1 721      0.034000
     11 N1          2.1930    3.1280    1.4530 n3        1 721     -0.260000
     12 C3          3.0330    4.0870    1.0090 c2        1 721      0.066000
     13 C4          3.6810    4.9830    1.8390 c2        1 721     -0.418000
     14 C5          3.5400    4.8370    3.2560 c2        1 721     -0.130000
     15 C7          2.1940    2.7200    2.8820 c3        1 721      0.227000
     16 C6          2.8120    3.8060    3.7570 c2        1 721     -0.055000
     17 O7          2.5670    3.8020    5.1270 os        1 721     -0.267000
     18 C8          2.6410    2.5290    5.7740 c3        1 721     -0.015000
     19 C9          1.2460    1.9730    6.0000 c3        1 721     -0.200000
     20 C10         1.2890    0.6550    6.7460 c3        1 721     -0.130000
     21 C11         0.1290   -0.2200    6.3460 c3        1 721     -0.233000
     22 H1          2.8280    0.3860    0.2060 ha        1 721      0.132000
     23 H2          0.4620    2.2470    0.6930 h1        1 721      0.101000
     24 H2A         1.8250    2.4230   -0.5050 h1        1 721      0.101000
     25 H3          3.1250    4.1830   -0.0910 h4        1 721      0.110000
     26 H4          4.2930    5.7880    1.4320 ha        1 721      0.080000
     27 H5          3.9900    5.5910    3.9150 ha        1 721      0.072000
     28 H7          1.0920    2.6000    3.1510 h2        1 721      0.096000
     29 H8          3.2590    1.8060    5.1780 h1        1 721      0.084000
     30 H8A         3.1430    2.7530    6.7570 h1        1 721      0.084000
     31 H9          0.7730    1.7980    4.9870 hc        1 721      0.108000
     32 H9A         0.6210    2.7160    6.5560 hc        1 721      0.108000
     33 H10         1.2860    0.8350    7.8550 hc        1 721      0.045000
     34 H10A        2.2440    0.1180    6.4980 hc        1 721      0.045000
     35 H11         0.1420   -0.3510    5.2220 hc        1 721      0.082000
     36 H11A        0.2000   -1.2190    6.8380 hc        1 721      0.082000
     37 H11B       -0.8410    0.2480    6.6410 hc        1 721      0.082000
@<TRIPOS>BOND
     1    1    2 1   
     2    2    3 1   
     3    2    4 1   
     4    2    5 1   
     5    3   15 1   
     6    5   10 1   
     7    5   22 1   
     8    6    7 1   
     9    6    8 1   
    10    6    9 1   
    11   10   11 1   
    12   10   23 1   
    13   10   24 1   
    14   11   12 1   
    15   11   15 1   
    16   12   13 1   
    17   12   25 1   
    18   13   14 1   
    19   13   26 1   
    20   14   16 1   
    21   14   27 1   
    22   15   16 1   
    23   15   28 1   
    24   16   17 1   
    25   17   18 1   
    26   18   19 1   
    27   18   29 1   
    28   18   30 1   
    29   19   20 1   
    30   19   31 1   
    31   19   32 1   
    32   20   21 1   
    33   20   33 1   
    34   20   34 1   
    35   21   35 1   
    36   21   36 1   
    37   21   37 1   
@<TRIPOS>SUBSTRUCTURE
     1 721         1 TEMP              0 ****  ****    0 ROOT
