@<TRIPOS>MOLECULE
721
   37    37     1     0     0
SMALL
bcc


@<TRIPOS>ATOM
      1 O6          1.6650    1.6710   -0.1840 o         1 721     -0.924500
      2 P2          0.8400    1.0620    0.9080 p5        1 721      2.119000
      3 O5          1.7250   -0.4560    0.9970 os        1 721     -0.738000
      4 O4          1.0710    1.5930    2.2790 o         1 721     -0.924500
      5 C1         -0.6260    0.4910    0.5840 c2        1 721     -1.455000
      6 P1         -2.5200    1.3730   -0.1930 p3        1 721      2.559000
      7 O3         -2.4090    1.2550   -1.6790 o         1 721     -1.222000
      8 O2         -3.4470    0.3810    0.4410 o         1 721     -1.222000
      9 O1         -2.5540    2.7540    0.3650 o         1 721     -1.222000
     10 C2         -0.7560   -0.5470   -0.4500 c3        1 721      0.034000
     11 N1          0.2290   -1.6500   -0.4070 n3        1 721     -0.260000
     12 C3         -0.1200   -2.9330   -0.1740 c2        1 721      0.066000
     13 C4          0.7930   -3.9640   -0.0460 c2        1 721     -0.418000
     14 C5          2.1910   -3.6550   -0.0620 c2        1 721     -0.130000
     15 C7          1.6210   -1.1850   -0.1690 c3        1 721      0.227000
     16 C6          2.5920   -2.3620   -0.1610 c2        1 721     -0.055000
     17 O7          3.9520   -2.1260   -0.3410 os        1 721     -0.267000
     18 C8          4.4970   -1.0160    0.3780 c3        1 721     -0.015000
     19 C9          4.6490    0.1820   -0.5420 c3        1 721     -0.200000
     20 C10         5.2880    1.3530    0.1740 c3        1 721     -0.130000
     21 C11         4.7950    2.6580   -0.3970 c3        1 721     -0.233000
     22 H1         -1.2200    0.2910    1.4930 ha        1 721      0.132000
     23 H2         -1.7860   -1.0140   -0.4140 h1        1 721      0.101000
     24 H2A        -0.6340   -0.0820   -1.4770 h1        1 721      0.101000
     25 H3         -1.2060   -3.1500   -0.1670 h4        1 721      0.110000
     26 H4          0.4640   -4.9970    0.0690 ha        1 721      0.080000
     27 H5          2.9170   -4.4780   -0.0370 ha        1 721      0.072000
     28 H7          1.8570   -0.5070   -1.0540 h2        1 721      0.096000
     29 H8          3.8580   -0.7520    1.2630 h1        1 721      0.084000
     30 H8A         5.5050   -1.3840    0.7210 h1        1 721      0.084000
     31 H9          5.2500   -0.0990   -1.4440 hc        1 721      0.108000
     32 H9A         3.6160    0.4890   -0.8860 hc        1 721      0.108000
     33 H10         5.0180    1.3160    1.2640 hc        1 721      0.045000
     34 H10A        6.4070    1.2880    0.1060 hc        1 721      0.045000
     35 H11         5.1070    2.7670   -1.4640 hc        1 721      0.082000
     36 H11A        3.6640    2.6750   -0.3450 hc        1 721      0.082000
     37 H11B        5.2070    3.5220    0.1780 hc        1 721      0.082000
@<TRIPOS>BOND
     1    1    2 1   
     2    2    3 1   
     3    2    4 1   
     4    2    5 1   
     5    3   15 1   
     6    5   10 1   
     7    5   22 1   
     8    6    7 1   
     9    6    8 1   
    10    6    9 1   
    11   10   11 1   
    12   10   23 1   
    13   10   24 1   
    14   11   12 1   
    15   11   15 1   
    16   12   13 1   
    17   12   25 1   
    18   13   14 1   
    19   13   26 1   
    20   14   16 1   
    21   14   27 1   
    22   15   16 1   
    23   15   28 1   
    24   16   17 1   
    25   17   18 1   
    26   18   19 1   
    27   18   29 1   
    28   18   30 1   
    29   19   20 1   
    30   19   31 1   
    31   19   32 1   
    32   20   21 1   
    33   20   33 1   
    34   20   34 1   
    35   21   35 1   
    36   21   36 1   
    37   21   37 1   
@<TRIPOS>SUBSTRUCTURE
     1 721         1 TEMP              0 ****  ****    0 ROOT
