@<TRIPOS>MOLECULE
721
   37    37     1     0     0
SMALL
bcc


@<TRIPOS>ATOM
      1 O6          0.8140    0.2260    3.1390 o         1 721     -0.924500
      2 P2          2.0600    0.1890    2.3090 p5        1 721      2.119000
      3 O5          2.8510    1.5560    3.0830 os        1 721     -0.738000
      4 O4          3.0260   -0.8990    2.6250 o         1 721     -0.924500
      5 C1          2.0350    0.7240    0.7950 c2        1 721     -1.455000
      6 P1          0.9300    0.1560   -1.0550 p3        1 721      2.559000
      7 O3         -0.3290    0.9610   -1.0040 o         1 721     -1.222000
      8 O2          1.9500    0.6610   -2.0300 o         1 721     -1.222000
      9 O1          0.7780   -1.3240   -0.9690 o         1 721     -1.222000
     10 C2          1.6050    2.1100    0.5540 c3        1 721      0.034000
     11 N1          2.1610    3.1420    1.4570 n3        1 721     -0.260000
     12 C3          2.9650    4.1360    1.0240 c2        1 721      0.066000
     13 C4          3.5630    5.0590    1.8620 c2        1 721     -0.418000
     14 C5          3.4090    4.9060    3.2780 c2        1 721     -0.130000
     15 C7          2.1600    2.7340    2.8860 c3        1 721      0.227000
     16 C6          2.7200    3.8450    3.7690 c2        1 721     -0.055000
     17 O7          2.4560    3.8310    5.1360 os        1 721     -0.267000
     18 C8          2.5760    2.5620    5.7840 c3        1 721     -0.015000
     19 C9          1.2040    1.9460    5.9920 c3        1 721     -0.200000
     20 C10         1.2940    0.6310    6.7390 c3        1 721     -0.130000
     21 C11         0.1770   -0.2930    6.3230 c3        1 721     -0.233000
     22 H1          2.9300    0.4300    0.2200 ha        1 721      0.132000
     23 H2          0.4800    2.1880    0.6740 h1        1 721      0.101000
     24 H2A         1.8510    2.4220   -0.5060 h1        1 721      0.101000
     25 H3          3.0680    4.2360   -0.0740 h4        1 721      0.110000
     26 H4          4.1450    5.8900    1.4630 ha        1 721      0.080000
     27 H5          3.8180    5.6790    3.9420 ha        1 721      0.072000
     28 H7          1.0610    2.5670    3.1400 h2        1 721      0.096000
     29 H8          3.2330    1.8660    5.1970 h1        1 721      0.084000
     30 H8A         3.0550    2.8080    6.7740 h1        1 721      0.084000
     31 H9          0.7520    1.7520    4.9730 hc        1 721      0.108000
     32 H9A         0.5390    2.6610    6.5390 hc        1 721      0.108000
     33 H10         1.2680    0.8100    7.8470 hc        1 721      0.045000
     34 H10A        2.2730    0.1360    6.5030 hc        1 721      0.045000
     35 H11         0.2100   -0.4220    5.1990 hc        1 721      0.082000
     36 H11A        0.2840   -1.2880    6.8170 hc        1 721      0.082000
     37 H11B       -0.8160    0.1330    6.6060 hc        1 721      0.082000
@<TRIPOS>BOND
     1    1    2 1   
     2    2    3 1   
     3    2    4 1   
     4    2    5 1   
     5    3   15 1   
     6    5   10 1   
     7    5   22 1   
     8    6    7 1   
     9    6    8 1   
    10    6    9 1   
    11   10   11 1   
    12   10   23 1   
    13   10   24 1   
    14   11   12 1   
    15   11   15 1   
    16   12   13 1   
    17   12   25 1   
    18   13   14 1   
    19   13   26 1   
    20   14   16 1   
    21   14   27 1   
    22   15   16 1   
    23   15   28 1   
    24   16   17 1   
    25   17   18 1   
    26   18   19 1   
    27   18   29 1   
    28   18   30 1   
    29   19   20 1   
    30   19   31 1   
    31   19   32 1   
    32   20   21 1   
    33   20   33 1   
    34   20   34 1   
    35   21   35 1   
    36   21   36 1   
    37   21   37 1   
@<TRIPOS>SUBSTRUCTURE
     1 721         1 TEMP              0 ****  ****    0 ROOT
