@<TRIPOS>MOLECULE
721
   37    34     1     0     0
SMALL
bcc


@<TRIPOS>ATOM
      1 O6          0.6500    0.6360   -5.7890 o         1 721     -1.120000
      2 P2         -0.0240    1.4160   -4.6850 p3        1 721      2.361000
      3 O5          0.9190    2.4770   -4.1710 os        1 721     -1.120000
      4 O4         -1.2740    2.0710   -5.2240 o         1 721     -1.120000
      5 C1         -0.4660    0.2890   -3.3300 c3        1 721     -0.677000
      6 P1         -1.9850   -0.6100   -3.7610 p5        1 721      1.676500
      7 O3         -1.8160   -1.2650   -5.1120 o         1 721     -0.711500
      8 O2         -2.2570   -1.6690   -2.7190 o         1 721     -0.711500
      9 O1         -3.1450    0.3550   -3.8120 o         1 721     -0.711500
     10 C2          0.6590   -0.6980   -3.1070 c3        1 721     -0.072000
     11 N1          1.2600   -0.4530   -1.8410 n3        1 721     -0.100000
     12 C3          2.5410    0.0070   -1.7740 c2        1 721     -0.284000
     13 C4          3.1560    0.1720   -0.5430 c1        1 721     -0.057000
     14 C5          2.4780   -0.1270    0.6040 c1        1 721     -0.515000
     15 C7          0.5820   -0.7520   -0.6970 c1        1 721     -0.297000
     16 C6          1.1950   -0.5880    0.5360 c1        1 721      0.098000
     17 O7          0.5330   -0.9960    1.7100 os        1 721     -0.258000
     18 C8          0.1190    0.0710    2.5320 c3        1 721     -0.001000
     19 C9         -0.5330   -0.4800    3.7830 c3        1 721     -0.203000
     20 C10        -1.3200    0.6160    4.4660 c3        1 721     -0.150000
     21 C11        -2.0550    0.0410    5.6560 c3        1 721     -0.206000
     22 H1         -0.6140    0.8040   -2.5140 hc        1 721      0.104000
     23 H2          1.3300   -0.5930   -3.8130 h1        1 721      0.055500
     24 H2A         0.3020   -1.6090   -3.1280 h1        1 721      0.055500
     25 H3          3.0260    0.2210   -2.5950 h4        1 721      0.097000
     26 H4          4.0740    0.5020   -0.4950 ha        1 721      0.053000
     27 H5          2.9210   -0.0390    1.4690 ha        1 721      0.077000
     28 H7         -0.3350   -1.0810   -0.7460 ha        1 721      0.108000
     29 H8         -0.5250    0.6270    2.0460 h1        1 721      0.059000
     30 H8A         0.8960    0.6130    2.7800 h1        1 721      0.059000
     31 H9          0.1580   -0.8120    4.3900 hc        1 721      0.101000
     32 H9A        -1.1350   -1.2120    3.5410 hc        1 721      0.101000
     33 H10        -1.9650    0.9950    3.8360 hc        1 721      0.063000
     34 H10A       -0.7080    1.3170    4.7680 hc        1 721      0.063000
     35 H11        -2.7370   -0.5910    5.3450 hc        1 721      0.061333
     36 H11A       -2.4860    0.7670    6.1550 hc        1 721      0.061333
     37 H11B       -1.4200   -0.4240    6.2390 hc        1 721      0.061333
@<TRIPOS>BOND
     1    1    2 1   
     2    2    4 1   
     3    2    5 1   
     4    5    6 1   
     5    5   10 1   
     6    5   22 1   
     7    6    7 1   
     8    6    8 1   
     9    6    9 1   
    10   10   11 1   
    11   10   23 1   
    12   10   24 1   
    13   11   12 1   
    14   11   15 1   
    15   12   13 1   
    16   12   25 1   
    17   13   26 1   
    18   14   16 1   
    19   14   27 1   
    20   15   28 1   
    21   16   17 1   
    22   17   18 1   
    23   18   19 1   
    24   18   29 1   
    25   18   30 1   
    26   19   20 1   
    27   19   31 1   
    28   19   32 1   
    29   20   21 1   
    30   20   33 1   
    31   20   34 1   
    32   21   35 1   
    33   21   36 1   
    34   21   37 1   
@<TRIPOS>SUBSTRUCTURE
     1 721         1 TEMP              0 ****  ****    0 ROOT
