@<TRIPOS>MOLECULE
722
   46    46     1     0     0
SMALL
bcc


@<TRIPOS>ATOM
      1 O1          4.3040    1.3350    0.2110 o         1 722     -1.221000
      2 P1          5.4490    1.4150   -0.7510 p3        1 722      2.558000
      3 O3          6.7450    1.8960   -0.1950 o         1 722     -1.221000
      4 O2          5.5180    0.2860   -1.7290 o         1 722     -1.221000
      5 C1          4.6690    3.1370   -1.9380 c2        1 722     -1.457000
      6 P2          5.3370    4.2900   -2.8320 p5        1 722      2.122000
      7 O4          5.7230    5.5490   -2.1380 o         1 722     -0.926000
      8 O5          6.1560    3.9270   -4.0340 o         1 722     -0.926000
      9 O6          3.9190    4.8300   -3.7180 os        1 722     -0.739000
     10 C2          3.7510    2.1910   -2.5910 c3        1 722      0.034000
     11 N1          2.7540    2.7710   -3.5170 n3        1 722     -0.260000
     12 C7          3.3230    3.8030   -4.4210 c3        1 722      0.227000
     13 C6          2.2560    4.3440   -5.3680 c2        1 722     -0.056000
     14 C5          0.9260    4.1420   -5.1790 c2        1 722     -0.129000
     15 C4          0.4810    3.3170   -4.0980 c2        1 722     -0.417000
     16 C3          1.4250    2.7080   -3.2910 c2        1 722      0.066000
     17 O7          2.6430    5.0120   -6.5260 os        1 722     -0.267000
     18 C8          3.7120    5.9510   -6.3810 c3        1 722     -0.015000
     19 C9          5.0140    5.3400   -6.8670 c3        1 722     -0.198000
     20 C10         6.1590    6.3270   -6.7730 c3        1 722     -0.126000
     21 C11         7.4550    5.6030   -6.4770 c3        1 722     -0.198000
     22 C12         8.6010    6.5690   -6.2760 c3        1 722     -0.140000
     23 C13         9.8690    5.8330   -5.8960 c3        1 722     -0.166000
     24 C14        11.0160    6.7800   -5.6540 c3        1 722     -0.200000
     25 H1          4.3090    3.5030   -0.9610 ha        1 722      0.133000
     26 H2          3.1850    1.5910   -1.8170 h1        1 722      0.101000
     27 H2A         4.3440    1.4550   -3.2190 h1        1 722      0.101000
     28 H7          4.1200    3.2550   -5.0240 h2        1 722      0.095000
     29 H5          0.1810    4.5640   -5.8670 ha        1 722      0.072000
     30 H4         -0.5870    3.1790   -3.9200 ha        1 722      0.081000
     31 H3          1.1020    2.0630   -2.4500 h4        1 722      0.110000
     32 H8          3.4080    6.8130   -7.0390 h1        1 722      0.085000
     33 H8A         3.8120    6.2920   -5.3160 h1        1 722      0.085000
     34 H9          4.8990    4.9740   -7.9190 hc        1 722      0.106500
     35 H9A         5.2450    4.4500   -6.2080 hc        1 722      0.106500
     36 H10         5.9590    7.0560   -5.9440 hc        1 722      0.047000
     37 H10A        6.2470    6.9180   -7.7240 hc        1 722      0.047000
     38 H11         7.2990    4.9760   -5.5370 hc        1 722      0.131500
     39 H11A        7.6990    4.9000   -7.3160 hc        1 722      0.131500
     40 H12         8.3340    7.2920   -5.4600 hc        1 722      0.053000
     41 H12A        8.7780    7.1690   -7.2090 hc        1 722      0.053000
     42 H13        10.1420    5.1120   -6.7110 hc        1 722      0.092500
     43 H13A        9.6680    5.2280   -4.9700 hc        1 722      0.092500
     44 H14        10.7720    7.4800   -4.8190 hc        1 722      0.050667
     45 H14A       11.9400    6.2150   -5.3810 hc        1 722      0.050667
     46 H14B       11.2330    7.3860   -6.5670 hc        1 722      0.050667
@<TRIPOS>BOND
     1    1    2 1   
     2    2    3 1   
     3    2    4 1   
     4    5    6 1   
     5    5   10 1   
     6    5   25 1   
     7    6    7 1   
     8    6    8 1   
     9    6    9 1   
    10    9   12 1   
    11   10   11 1   
    12   10   26 1   
    13   10   27 1   
    14   11   12 1   
    15   11   16 1   
    16   12   13 1   
    17   12   28 1   
    18   13   14 1   
    19   13   17 1   
    20   14   15 1   
    21   14   29 1   
    22   15   16 1   
    23   15   30 1   
    24   16   31 1   
    25   17   18 1   
    26   18   19 1   
    27   18   32 1   
    28   18   33 1   
    29   19   20 1   
    30   19   34 1   
    31   19   35 1   
    32   20   21 1   
    33   20   36 1   
    34   20   37 1   
    35   21   22 1   
    36   21   38 1   
    37   21   39 1   
    38   22   23 1   
    39   22   40 1   
    40   22   41 1   
    41   23   24 1   
    42   23   42 1   
    43   23   43 1   
    44   24   44 1   
    45   24   45 1   
    46   24   46 1   
@<TRIPOS>SUBSTRUCTURE
     1 722         1 TEMP              0 ****  ****    0 ROOT
