@<TRIPOS>MOLECULE
722
   46    44     1     0     0
SMALL
bcc


@<TRIPOS>ATOM
      1 O1         -6.4200   -1.7510    2.2750 o         1 722     -0.755167
      2 P1         -5.9320   -3.1630    2.4910 p5        1 722      1.536000
      3 O3         -6.4970   -3.6990    3.7850 o         1 722     -0.755167
      4 O2         -6.3870   -4.0340    1.3450 o         1 722     -0.755167
      5 C1         -4.1180   -3.1710    2.5730 c3        1 722     -0.680000
      6 P2         -3.5260   -4.8820    2.7100 p5        1 722      1.536000
      7 O4         -2.0870   -4.8820    3.1670 o         1 722     -0.755167
      8 O5         -4.3720   -5.6290    3.7130 o         1 722     -0.755167
      9 O6         -3.6260   -5.5590    1.3640 o         1 722     -0.755167
     10 C2         -3.5530   -2.5410    1.3190 c3        1 722     -0.064000
     11 N1         -2.7510   -1.4190    1.6710 n3        1 722     -0.104000
     12 C7         -1.4790   -1.3150    1.1920 c2        1 722     -0.273000
     13 C6         -0.7150   -0.1980    1.4920 c1        1 722      0.093000
     14 C5         -1.2370    0.7980    2.2660 c2        1 722     -0.516000
     15 C4         -2.5110    0.6920    2.7450 c1        1 722     -0.044000
     16 C3         -3.2730   -0.4270    2.4440 c1        1 722     -0.313000
     17 O7          0.6260   -0.1300    1.0710 o         1 722     -0.251000
     18 C8          0.9310    1.0230    0.3200 c3        1 722     -0.002000
     19 C9          2.2510    0.8240   -0.3960 c3        1 722     -0.203000
     20 C10         2.5120    2.0030   -1.3100 c3        1 722     -0.147000
     21 C11         3.7740    1.7530   -2.1070 c3        1 722     -0.159000
     22 C12         3.9640    2.8680   -3.1130 c3        1 722     -0.156000
     23 C13         5.2660    2.6600   -3.8570 c3        1 722     -0.161000
     24 C14         5.3870    3.6890   -4.9590 c3        1 722     -0.207000
     25 H1         -3.8250   -2.6630    3.3530 hc        1 722      0.110000
     26 H2         -3.0040   -3.1980    0.8420 h1        1 722      0.054000
     27 H2A        -4.2880   -2.2480    0.7410 h1        1 722      0.054000
     28 H7         -1.1070   -2.0260    0.6380 h4        1 722      0.112000
     29 H5         -0.7160    1.6050    2.4400 ha        1 722      0.078000
     30 H4         -2.8850    1.4030    3.2990 ha        1 722      0.050000
     31 H3         -4.1750   -0.5140    2.8070 ha        1 722      0.086000
     32 H8          0.9980    1.7950    0.9190 h1        1 722      0.059500
     33 H8A         0.2240    1.1810   -0.3390 h1        1 722      0.059500
     34 H9          2.2140    0.0030   -0.9260 hc        1 722      0.102000
     35 H9A         2.9720    0.7560    0.2620 hc        1 722      0.102000
     36 H10         1.7570    2.1150   -1.9210 hc        1 722      0.064500
     37 H10A        2.6210    2.8140   -0.7730 hc        1 722      0.064500
     38 H11         4.5420    1.7260   -1.5020 hc        1 722      0.082500
     39 H11A        3.6990    0.8990   -2.5770 hc        1 722      0.082500
     40 H12         3.2210    2.8640   -3.7480 hc        1 722      0.070500
     41 H12A        3.9900    3.7270   -2.6460 hc        1 722      0.070500
     42 H13         6.0150    2.7570   -3.2360 hc        1 722      0.078500
     43 H13A        5.2780    1.7630   -4.2460 hc        1 722      0.078500
     44 H14         5.3470    4.5880   -4.5710 hc        1 722      0.062667
     45 H14A        6.2420    3.5710   -5.4240 hc        1 722      0.062667
     46 H14B        4.6500    3.5750   -5.5950 hc        1 722      0.062667
@<TRIPOS>BOND
     1    1    2 1   
     2    2    3 1   
     3    2    4 1   
     4    2    5 1   
     5    5    6 1   
     6    5   10 1   
     7    5   25 1   
     8    6    7 1   
     9    6    8 1   
    10    6    9 1   
    11   10   11 1   
    12   10   26 1   
    13   10   27 1   
    14   11   12 1   
    15   11   16 1   
    16   12   13 1   
    17   12   28 1   
    18   13   14 1   
    19   14   15 1   
    20   14   29 1   
    21   15   30 1   
    22   16   31 1   
    23   17   18 1   
    24   18   19 1   
    25   18   32 1   
    26   18   33 1   
    27   19   20 1   
    28   19   34 1   
    29   19   35 1   
    30   20   21 1   
    31   20   36 1   
    32   20   37 1   
    33   21   22 1   
    34   21   38 1   
    35   21   39 1   
    36   22   23 1   
    37   22   40 1   
    38   22   41 1   
    39   23   24 1   
    40   23   42 1   
    41   23   43 1   
    42   24   44 1   
    43   24   45 1   
    44   24   46 1   
@<TRIPOS>SUBSTRUCTURE
     1 722         1 TEMP              0 ****  ****    0 ROOT
