@<TRIPOS>MOLECULE
722
   46    46     1     0     0
SMALL
bcc


@<TRIPOS>ATOM
      1 O1         -1.2730    3.0670   -0.0260 o         1 722     -1.223000
      2 P1          0.0500    3.0700   -0.7290 p3        1 722      2.566000
      3 O3          0.0760    3.7360   -2.0620 o         1 722     -1.223000
      4 O2          1.2350    3.3020    0.1560 o         1 722     -1.223000
      5 C1          0.1500    0.9000   -1.1880 c2        1 722     -1.455000
      6 P2          1.0540    0.0260   -2.1880 p5        1 722      2.122000
      7 O4          0.5290   -0.2090   -3.5590 o         1 722     -0.924000
      8 O5          2.5450    0.0860   -2.0310 o         1 722     -0.924000
      9 O6          0.8630   -1.5690   -1.4820 os        1 722     -0.735000
     10 C2          0.3150    0.6590    0.2560 c3        1 722      0.022000
     11 N1          0.3640   -0.7490    0.6960 n3        1 722     -0.266000
     12 C7          1.2350   -1.5990   -0.1540 c3        1 722      0.223000
     13 C6          1.2660   -3.0370    0.3600 c2        1 722     -0.035000
     14 C5          0.3840   -3.5130    1.2770 c2        1 722     -0.155000
     15 C4         -0.6080   -2.6370    1.8280 c2        1 722     -0.399000
     16 C3         -0.5960   -1.3040    1.4710 c2        1 722      0.057000
     17 O7          2.2000   -3.9450   -0.1300 os        1 722     -0.259000
     18 C8          3.2870   -3.4000   -0.8790 c3        1 722     -0.025000
     19 C9          4.3250   -2.7590    0.0350 c3        1 722     -0.173000
     20 C10         4.9070   -1.4960   -0.5660 c3        1 722     -0.203000
     21 C11         5.2500   -0.4540    0.4830 c3        1 722     -0.128000
     22 C12         4.9980    0.9450   -0.0430 c3        1 722     -0.189000
     23 C13         5.0660    1.9830    1.0560 c3        1 722     -0.133000
     24 C14         4.4830    3.2970    0.6050 c3        1 722     -0.241000
     25 H1         -0.8990    1.0050   -1.5090 ha        1 722      0.127000
     26 H2          1.3040    1.1060    0.5920 h1        1 722      0.104000
     27 H2A        -0.5070    1.1700    0.8420 h1        1 722      0.104000
     28 H7          2.2740   -1.1370   -0.0510 h2        1 722      0.096000
     29 H5          0.4150   -4.5570    1.6110 ha        1 722      0.074000
     30 H4         -1.3590   -3.0330    2.5140 ha        1 722      0.080000
     31 H3         -1.3490   -0.6080    1.8870 h4        1 722      0.110000
     32 H8          3.7160   -4.3070   -1.3870 h1        1 722      0.102000
     33 H8A         2.9060   -2.6810   -1.6550 h1        1 722      0.102000
     34 H9          3.8250   -2.5270    1.0130 hc        1 722      0.056000
     35 H9A         5.1410   -3.4970    0.2560 hc        1 722      0.056000
     36 H10         5.8230   -1.7490   -1.1590 hc        1 722      0.122000
     37 H10A        4.1540   -1.0340   -1.2850 hc        1 722      0.122000
     38 H11         4.6160   -0.6100    1.3970 hc        1 722      0.037500
     39 H11A        6.3190   -0.5630    0.8080 hc        1 722      0.037500
     40 H12         5.7480    1.1880   -0.8390 hc        1 722      0.128000
     41 H12A        3.9750    0.9760   -0.5380 hc        1 722      0.128000
     42 H13         4.4930    1.6190    1.9500 hc        1 722      0.031500
     43 H13A        6.1320    2.1190    1.3870 hc        1 722      0.031500
     44 H14         4.6210    4.0740    1.3950 hc        1 722      0.090333
     45 H14A        4.9860    3.6510   -0.3270 hc        1 722      0.090333
     46 H14B        3.3750    3.1900    0.3920 hc        1 722      0.090333
@<TRIPOS>BOND
     1    1    2 1   
     2    2    3 1   
     3    2    4 1   
     4    5    6 1   
     5    5   10 1   
     6    5   25 1   
     7    6    7 1   
     8    6    8 1   
     9    6    9 1   
    10    9   12 1   
    11   10   11 1   
    12   10   26 1   
    13   10   27 1   
    14   11   12 1   
    15   11   16 1   
    16   12   13 1   
    17   12   28 1   
    18   13   14 1   
    19   13   17 1   
    20   14   15 1   
    21   14   29 1   
    22   15   16 1   
    23   15   30 1   
    24   16   31 1   
    25   17   18 1   
    26   18   19 1   
    27   18   32 1   
    28   18   33 1   
    29   19   20 1   
    30   19   34 1   
    31   19   35 1   
    32   20   21 1   
    33   20   36 1   
    34   20   37 1   
    35   21   22 1   
    36   21   38 1   
    37   21   39 1   
    38   22   23 1   
    39   22   40 1   
    40   22   41 1   
    41   23   24 1   
    42   23   42 1   
    43   23   43 1   
    44   24   44 1   
    45   24   45 1   
    46   24   46 1   
@<TRIPOS>SUBSTRUCTURE
     1 722         1 TEMP              0 ****  ****    0 ROOT
