@<TRIPOS>MOLECULE
722
   46    46     1     0     0
SMALL
bcc


@<TRIPOS>ATOM
      1 O1          4.3840    1.3020    0.2070 o         1 722     -1.221000
      2 P1          5.5120    1.3870   -0.7750 p3        1 722      2.558000
      3 O3          6.8180    1.8620   -0.2390 o         1 722     -1.221000
      4 O2          5.5620    0.2650   -1.7620 o         1 722     -1.221000
      5 C1          4.7140    3.1190   -1.9350 c2        1 722     -1.457000
      6 P2          5.3690    4.2770   -2.8330 p5        1 722      2.122000
      7 O4          5.7700    5.5300   -2.1370 o         1 722     -0.926000
      8 O5          6.1660    3.9210   -4.0510 o         1 722     -0.926000
      9 O6          3.9360    4.8260   -3.6890 os        1 722     -0.739000
     10 C2          3.7840    2.1790   -2.5790 c3        1 722      0.034000
     11 N1          2.7710    2.7670   -3.4820 n3        1 722     -0.260000
     12 C7          3.3260    3.8060   -4.3890 c3        1 722      0.227000
     13 C6          2.2430    4.3550   -5.3130 c2        1 722     -0.056000
     14 C5          0.9170    4.1540   -5.1030 c2        1 722     -0.129000
     15 C4          0.4890    3.3220   -4.0190 c2        1 722     -0.417000
     16 C3          1.4460    2.7060   -3.2330 c2        1 722      0.066000
     17 O7          2.6110    5.0310   -6.4730 os        1 722     -0.267000
     18 C8          3.6840    5.9660   -6.3410 c3        1 722     -0.015000
     19 C9          4.9760    5.3560   -6.8540 c3        1 722     -0.198000
     20 C10         6.1250    6.3400   -6.7740 c3        1 722     -0.126000
     21 C11         7.4250    5.6120   -6.5050 c3        1 722     -0.198000
     22 C12         8.5760    6.5740   -6.3180 c3        1 722     -0.140000
     23 C13         9.8480    5.8340   -5.9650 c3        1 722     -0.166000
     24 C14        11.0020    6.7770   -5.7370 c3        1 722     -0.200000
     25 H1          4.3730    3.4790   -0.9490 ha        1 722      0.133000
     26 H2          3.2290    1.5740   -1.7990 h1        1 722      0.101000
     27 H2A         4.3630    1.4470   -3.2220 h1        1 722      0.101000
     28 H7          4.1110    3.2600   -5.0100 h2        1 722      0.095000
     29 H5          0.1610    4.5820   -5.7740 ha        1 722      0.072000
     30 H4         -0.5750    3.1850   -3.8240 ha        1 722      0.081000
     31 H3          1.1370    2.0550   -2.3920 h4        1 722      0.110000
     32 H8          3.3700    6.8330   -6.9870 h1        1 722      0.085000
     33 H8A         3.8040    6.3000   -5.2750 h1        1 722      0.085000
     34 H9          4.8420    4.9980   -7.9060 hc        1 722      0.106500
     35 H9A         5.2170    4.4620   -6.2050 hc        1 722      0.106500
     36 H10         5.9410    7.0650   -5.9360 hc        1 722      0.047000
     37 H10A        6.1970    6.9380   -7.7220 hc        1 722      0.047000
     38 H11         7.2840    4.9790   -5.5670 hc        1 722      0.131500
     39 H11A        7.6520    4.9150   -7.3530 hc        1 722      0.131500
     40 H12         8.3250    7.2930   -5.4930 hc        1 722      0.053000
     41 H12A        8.7370    7.1800   -7.2500 hc        1 722      0.053000
     42 H13        10.1060    5.1170   -6.7890 hc        1 722      0.092500
     43 H13A        9.6630    5.2230   -5.0400 hc        1 722      0.092500
     44 H14        10.7740    7.4720   -4.8940 hc        1 722      0.050667
     45 H14A       11.9290    6.2080   -5.4840 hc        1 722      0.050667
     46 H14B       11.2040    7.3890   -6.6500 hc        1 722      0.050667
@<TRIPOS>BOND
     1    1    2 1   
     2    2    3 1   
     3    2    4 1   
     4    5    6 1   
     5    5   10 1   
     6    5   25 1   
     7    6    7 1   
     8    6    8 1   
     9    6    9 1   
    10    9   12 1   
    11   10   11 1   
    12   10   26 1   
    13   10   27 1   
    14   11   12 1   
    15   11   16 1   
    16   12   13 1   
    17   12   28 1   
    18   13   14 1   
    19   13   17 1   
    20   14   15 1   
    21   14   29 1   
    22   15   16 1   
    23   15   30 1   
    24   16   31 1   
    25   17   18 1   
    26   18   19 1   
    27   18   32 1   
    28   18   33 1   
    29   19   20 1   
    30   19   34 1   
    31   19   35 1   
    32   20   21 1   
    33   20   36 1   
    34   20   37 1   
    35   21   22 1   
    36   21   38 1   
    37   21   39 1   
    38   22   23 1   
    39   22   40 1   
    40   22   41 1   
    41   23   24 1   
    42   23   42 1   
    43   23   43 1   
    44   24   44 1   
    45   24   45 1   
    46   24   46 1   
@<TRIPOS>SUBSTRUCTURE
     1 722         1 TEMP              0 ****  ****    0 ROOT
