@<TRIPOS>MOLECULE
723
   33    29     1     0     0
SMALL
bcc


@<TRIPOS>ATOM
      1 N          -1.6960    0.0630    2.5940 n         1 723     -0.310000
      2 CL          4.3290    0.0090    2.9090 cl        1 723     -0.048000
      3 C1         -1.7310    0.1000    0.0610 c1        1 723     -0.017000
      4 O1         -3.6410    0.3680    1.3730 o         1 723     -0.351000
      5 C2         -2.5220   -0.0060   -1.2440 c2        1 723     -0.227000
      6 O2         -3.5650   -1.9200   -0.2050 o         1 723     -0.561500
      7 C3         -0.2690    0.0660    0.0380 c1        1 723     -0.031000
      8 O3         -4.6970   -0.9210   -1.7830 o         1 723     -0.561500
      9 C4          0.4810    0.0720   -1.3070 c1        1 723     -0.038000
     10 C5          0.5060    0.0300    1.3420 c2        1 723     -0.058000
     11 C6         -0.1860    0.0290    2.5730 c2        1 723      0.091000
     12 C7         -2.4400    0.1620    1.3490 c2        1 723      0.338000
     13 C8          0.8370    1.3320   -1.7680 c1        1 723     -0.131000
     14 C9          1.5570    1.4620   -2.9500 c1        1 723     -0.147000
     15 C10         1.9210    0.3320   -3.6690 c1        1 723     -0.147000
     16 C11         1.5650   -0.9290   -3.2080 c1        1 723     -0.140000
     17 C12         0.8450   -1.0590   -2.0260 c2        1 723     -0.094000
     18 C13         1.9070    0.0100    1.3280 c1        1 723     -0.077000
     19 C14         2.6230   -0.0110    2.5390 c1        1 723     -0.106000
     20 C15         1.9320   -0.0120    3.7690 c1        1 723     -0.101000
     21 C16         0.5350    0.0080    3.7860 c1        1 723     -0.188000
     22 C17        -3.6560   -1.0130   -1.0710 c2        1 723      0.348000
     23 HN         -2.1460    0.0080    3.3940 hn        1 723      0.232000
     24 H2         -1.9300   -0.3040   -1.9610 ha        1 723      0.100500
     25 H2A        -2.8990    0.8750   -1.4730 ha        1 723      0.100500
     26 H8          0.5820    2.1270   -1.2630 ha        1 723      0.125000
     27 H9          1.8080    2.3500   -3.2750 ha        1 723      0.114000
     28 H10         2.4290    0.4240   -4.5040 ha        1 723      0.114000
     29 H11         1.7630   -1.7200   -3.7480 ha        1 723      0.130000
     30 H12         0.5950   -1.9420   -1.7040 ha        1 723      0.217000
     31 H13         2.7160   -0.0180    0.7790 ha        1 723      0.160000
     32 H15         2.3340   -0.0120    4.6590 ha        1 723      0.134000
     33 H16         0.1120    0.0380    4.6680 ha        1 723      0.129000
@<TRIPOS>BOND
     1    1   11 1   
     2    1   12 1   
     3    1   23 1   
     4    2   19 1   
     5    3    7 1   
     6    3   12 1   
     7    4   12 1   
     8    5   22 1   
     9    5   24 1   
    10    5   25 1   
    11    6   22 1   
    12    7   10 1   
    13    8   22 1   
    14    9   13 1   
    15    9   17 1   
    16   10   11 1   
    17   10   18 1   
    18   11   21 1   
    19   13   26 1   
    20   14   15 1   
    21   14   27 1   
    22   15   28 1   
    23   16   17 1   
    24   16   29 1   
    25   17   30 1   
    26   18   31 1   
    27   19   20 1   
    28   20   32 1   
    29   21   33 1   
@<TRIPOS>SUBSTRUCTURE
     1 723         1 TEMP              0 ****  ****    0 ROOT
