@<TRIPOS>MOLECULE
723
   33    35     1     0     0
SMALL
bcc


@<TRIPOS>ATOM
      1 N          -0.0080    0.0350    0.0120 n         1 723     -0.456100
      2 CL          5.8620    0.4810   -0.1350 cl        1 723     -0.126400
      3 C1         -0.0800   -0.1730   -2.4520 cc        1 723     -0.040400
      4 O1         -2.0220   -0.0650   -0.9930 o         1 723     -0.626500
      5 C2         -0.9350   -0.4490   -3.6210 c3        1 723     -0.194200
      6 O2         -2.2020   -2.2410   -4.5740 o         1 723     -0.826800
      7 C3          1.2740   -0.0040   -2.4990 cd        1 723     -0.007400
      8 O3         -0.3150   -2.8080   -3.5210 o         1 723     -0.826800
      9 C4          2.0010    0.0310   -3.7750 ca        1 723     -0.049800
     10 C5          2.0500    0.1350   -1.2780 ca        1 723     -0.069800
     11 C6          1.3730    0.1210   -0.0230 ca        1 723      0.083600
     12 C7         -0.7870   -0.0870   -1.1510 c         1 723      0.699700
     13 C8          2.6760    1.1960   -4.1700 ca        1 723     -0.112500
     14 C9          3.3690    1.2310   -5.3780 ca        1 723     -0.147500
     15 C10         3.3950    0.1050   -6.2020 ca        1 723     -0.139000
     16 C11         2.7190   -1.0520   -5.8170 ca        1 723     -0.147500
     17 C12         2.0190   -1.0940   -4.6120 ca        1 723     -0.112500
     18 C13         3.4490    0.2410   -1.2880 ca        1 723     -0.077000
     19 C14         4.1610    0.3420   -0.0980 ca        1 723     -0.027600
     20 C15         3.5010    0.3270    1.1380 ca        1 723     -0.101000
     21 C16         2.1230    0.2150    1.1770 ca        1 723     -0.188000
     22 C17        -1.1680   -1.9630   -3.9120 c         1 723      0.928600
     23 HN         -0.4670    0.0110    0.8940 hn        1 723      0.318500
     24 H2         -0.4740   -0.0220   -4.5480 hc        1 723      0.061200
     25 H2A        -1.9470    0.0130   -3.4740 hc        1 723      0.061200
     26 H8          2.6530    2.0840   -3.5220 ha        1 723      0.171000
     27 H9          3.8920    2.1480   -5.6810 ha        1 723      0.122000
     28 H10         3.9430    0.1350   -7.1540 ha        1 723      0.114000
     29 H11         2.7250   -1.9370   -6.4690 ha        1 723      0.122000
     30 H12         1.4460   -1.9990   -4.3120 ha        1 723      0.171000
     31 H13         3.9810    0.2360   -2.2540 ha        1 723      0.160000
     32 H15         4.0750    0.4000    2.0730 ha        1 723      0.134000
     33 H16         1.6080    0.1960    2.1490 ha        1 723      0.129000
@<TRIPOS>BOND
     1    1   11 1   
     2    1   12 1   
     3    1   23 1   
     4    2   19 1   
     5    3    5 1   
     6    3    7 2   
     7    3   12 1   
     8    4   12 2   
     9    5   22 1   
    10    5   24 1   
    11    5   25 1   
    12    6   22 1   
    13    7    9 1   
    14    7   10 1   
    15    8   22 1   
    16    9   13 ar  
    17    9   17 ar  
    18   10   11 ar  
    19   10   18 ar  
    20   11   21 ar  
    21   13   14 ar  
    22   13   26 1   
    23   14   15 ar  
    24   14   27 1   
    25   15   16 ar  
    26   15   28 1   
    27   16   17 ar  
    28   16   29 1   
    29   17   30 1   
    30   18   19 ar  
    31   18   31 1   
    32   19   20 ar  
    33   20   21 ar  
    34   20   32 1   
    35   21   33 1   
@<TRIPOS>SUBSTRUCTURE
     1 723         1 TEMP              0 ****  ****    0 ROOT
