@<TRIPOS>MOLECULE
723
   33    35     1     0     0
SMALL
bcc


@<TRIPOS>ATOM
      1 N          -0.0200    0.0120    0.0050 n         1 723     -0.456100
      2 CL          5.8370    0.6060   -0.1270 cl        1 723     -0.126400
      3 C1         -0.0790   -0.2150   -2.4570 cc        1 723     -0.040400
      4 O1         -2.0270   -0.1460   -1.0050 o         1 723     -0.626500
      5 C2         -0.9230   -0.5220   -3.6260 c3        1 723     -0.194200
      6 O2         -2.1390   -2.3520   -4.5720 o         1 723     -0.826800
      7 C3          1.2710   -0.0120   -2.5010 cd        1 723     -0.007400
      8 O3         -0.2430   -2.8630   -3.5060 o         1 723     -0.826800
      9 C4          2.0000    0.0320   -3.7750 ca        1 723     -0.049800
     10 C5          2.0390    0.1550   -1.2780 ca        1 723     -0.069800
     11 C6          1.3590    0.1340   -0.0260 ca        1 723      0.083600
     12 C7         -0.7920   -0.1380   -1.1590 c         1 723      0.699700
     13 C8          2.6470    1.2100   -4.1760 ca        1 723     -0.112500
     14 C9          3.3420    1.2540   -5.3830 ca        1 723     -0.147500
     15 C10         3.4000    0.1230   -6.1980 ca        1 723     -0.139000
     16 C11         2.7530   -1.0480   -5.8060 ca        1 723     -0.147500
     17 C12         2.0500   -1.0990   -4.6030 ca        1 723     -0.112500
     18 C13         3.4350    0.2970   -1.2850 ca        1 723     -0.077000
     19 C14         4.1400    0.4250   -0.0940 ca        1 723     -0.027600
     20 C15         3.4770    0.4020    1.1400 ca        1 723     -0.101000
     21 C16         2.1020    0.2550    1.1760 ca        1 723     -0.188000
     22 C17        -1.1150   -2.0430   -3.9080 c         1 723      0.928600
     23 HN         -0.4810   -0.0170    0.8870 hn        1 723      0.318500
     24 H2         -0.4690   -0.0890   -4.5560 hc        1 723      0.061200
     25 H2A        -1.9460   -0.0850   -3.4860 hc        1 723      0.061200
     26 H8          2.5990    2.1030   -3.5360 ha        1 723      0.171000
     27 H9          3.8420    2.1820   -5.6920 ha        1 723      0.122000
     28 H10         3.9500    0.1590   -7.1490 ha        1 723      0.114000
     29 H11         2.7830   -1.9380   -6.4520 ha        1 723      0.122000
     30 H12         1.4990   -2.0160   -4.2980 ha        1 723      0.171000
     31 H13         3.9700    0.2980   -2.2500 ha        1 723      0.160000
     32 H15         4.0460    0.4960    2.0770 ha        1 723      0.134000
     33 H16         1.5850    0.2300    2.1470 ha        1 723      0.129000
@<TRIPOS>BOND
     1    1   11 1   
     2    1   12 1   
     3    1   23 1   
     4    2   19 1   
     5    3    5 1   
     6    3    7 2   
     7    3   12 1   
     8    4   12 2   
     9    5   22 1   
    10    5   24 1   
    11    5   25 1   
    12    6   22 1   
    13    7    9 1   
    14    7   10 1   
    15    8   22 1   
    16    9   13 ar  
    17    9   17 ar  
    18   10   11 ar  
    19   10   18 ar  
    20   11   21 ar  
    21   13   14 ar  
    22   13   26 1   
    23   14   15 ar  
    24   14   27 1   
    25   15   16 ar  
    26   15   28 1   
    27   16   17 ar  
    28   16   29 1   
    29   17   30 1   
    30   18   19 ar  
    31   18   31 1   
    32   19   20 ar  
    33   20   21 ar  
    34   20   32 1   
    35   21   33 1   
@<TRIPOS>SUBSTRUCTURE
     1 723         1 TEMP              0 ****  ****    0 ROOT
