@<TRIPOS>MOLECULE
723
   33    35     1     0     0
SMALL
bcc


@<TRIPOS>ATOM
      1 N          -0.2290   -2.8290   -0.3770 n         1 723     -0.456100
      2 CL         -4.6320    1.0770   -0.2240 cl        1 723     -0.126400
      3 C1          1.4330   -1.0000   -0.2760 cc        1 723     -0.040400
      4 O1          1.9560   -3.3610   -0.5240 o         1 723     -0.626500
      5 C2          2.8620   -0.6670   -0.1360 c3        1 723     -0.194200
      6 O2          4.6230   -0.8150    1.4770 o         1 723     -0.826800
      7 C3          0.4180   -0.0860   -0.3070 cd        1 723     -0.007400
      8 O3          2.5730   -0.4290    2.2760 o         1 723     -0.826800
      9 C4          0.6850    1.3580   -0.3180 ca        1 723     -0.049800
     10 C5         -0.9710   -0.5150   -0.3170 ca        1 723     -0.069800
     11 C6         -1.2630   -1.9100   -0.3230 ca        1 723      0.083600
     12 C7          1.1230   -2.4460   -0.3820 c         1 723      0.699700
     13 C8          0.3050    2.1360   -1.4210 ca        1 723     -0.112500
     14 C9          0.5540    3.5070   -1.4330 ca        1 723     -0.147500
     15 C10         1.1810    4.1140   -0.3440 ca        1 723     -0.139000
     16 C11         1.5660    3.3430    0.7520 ca        1 723     -0.147500
     17 C12         1.3260    1.9690    0.7690 ca        1 723     -0.112500
     18 C13        -2.0360    0.3970   -0.2790 ca        1 723     -0.077000
     19 C14        -3.3520   -0.0510   -0.2590 ca        1 723     -0.027600
     20 C15        -3.6450   -1.4210   -0.2630 ca        1 723     -0.101000
     21 C16        -2.6140   -2.3420   -0.2920 ca        1 723     -0.188000
     22 C17         3.3840   -0.6470    1.3330 c         1 723      0.928600
     23 HN         -0.4470   -3.8000   -0.3660 hn        1 723      0.318500
     24 H2          3.4870   -1.4130   -0.6930 hc        1 723      0.061200
     25 H2A         3.0640    0.3550   -0.5500 hc        1 723      0.061200
     26 H8         -0.1860    1.6590   -2.2810 ha        1 723      0.171000
     27 H9          0.2580    4.1090   -2.3030 ha        1 723      0.122000
     28 H10         1.3760    5.1950   -0.3550 ha        1 723      0.114000
     29 H11         2.0740    3.8130    1.6070 ha        1 723      0.122000
     30 H12         1.6620    1.3390    1.6220 ha        1 723      0.171000
     31 H13        -1.8170    1.4780   -0.2580 ha        1 723      0.160000
     32 H15        -4.6900   -1.7640   -0.2390 ha        1 723      0.134000
     33 H16        -2.8470   -3.4170   -0.2860 ha        1 723      0.129000
@<TRIPOS>BOND
     1    1   11 1   
     2    1   12 1   
     3    1   23 1   
     4    2   19 1   
     5    3    5 1   
     6    3    7 2   
     7    3   12 1   
     8    4   12 2   
     9    5   22 1   
    10    5   24 1   
    11    5   25 1   
    12    6   22 1   
    13    7    9 1   
    14    7   10 1   
    15    8   22 1   
    16    9   13 ar  
    17    9   17 ar  
    18   10   11 ar  
    19   10   18 ar  
    20   11   21 ar  
    21   13   14 ar  
    22   13   26 1   
    23   14   15 ar  
    24   14   27 1   
    25   15   16 ar  
    26   15   28 1   
    27   16   17 ar  
    28   16   29 1   
    29   17   30 1   
    30   18   19 ar  
    31   18   31 1   
    32   19   20 ar  
    33   20   21 ar  
    34   20   32 1   
    35   21   33 1   
@<TRIPOS>SUBSTRUCTURE
     1 723         1 TEMP              0 ****  ****    0 ROOT
