@<TRIPOS>MOLECULE
724
   35    37     1     0     0
SMALL
bcc


@<TRIPOS>ATOM
      1 N1         -0.0730    0.3910    0.2470 n         1 724     -0.270000
      2 N2          1.2790    0.0970   -0.0110 n3        1 724     -0.138000
      3 C3         -0.5210   -0.1540    1.5100 c2        1 724      0.357000
      4 N4         -1.0560    1.9670   -3.9650 n         1 724     -0.391000
      5 C5         -1.8650    1.4070   -2.9680 c2        1 724      0.300000
      6 C6         -1.1570    1.6810   -1.5970 c3        1 724      0.019000
      7 N7          0.1340    2.2790   -1.9910 n         1 724     -0.321000
      8 C8          0.1150    2.5400   -3.3910 c2        1 724      0.373000
      9 O9          0.9940    3.1310   -4.0360 o         1 724     -0.329000
     10 C11        -2.0430    2.5950   -0.7580 c3        1 724     -0.232000
     11 C12        -0.9790    0.3080   -0.8890 c3        1 724     -0.013000
     12 C13         0.7030   -0.5520    2.2460 c2        1 724     -0.198000
     13 C14         1.7800   -0.6990    1.1420 c3        1 724     -0.024000
     14 C15         3.1210   -0.3990    1.7850 c2        1 724     -0.150000
     15 C16         3.1450   -0.4270    3.0910 c1        1 724     -0.219000
     16 C17         2.3110   -0.5310    4.2880 c3        1 724      0.239000
     17 C18         1.0810   -0.5500    3.4920 c1        1 724     -0.064000
     18 O19        -1.6980   -0.1770    1.8710 o         1 724     -0.279000
     19 O20         2.3420    0.6080    5.1330 os        1 724     -0.235000
     20 C21         3.5270    0.6730    5.9180 c3        1 724     -0.078000
     21 HN2         1.7630    0.9900   -0.0340 hn        1 724      0.166000
     22 HN4        -1.2130    1.9160   -4.9390 hn        1 724      0.273000
     23 HN7         0.5050    2.9880   -1.4030 hn        1 724      0.234000
     24 H11        -1.5870    2.7640    0.2470 hc        1 724      0.102333
     25 H11A       -2.1920    3.5820   -1.2580 hc        1 724      0.102333
     26 H11B       -3.0410    2.1100   -0.6220 hc        1 724      0.102333
     27 H12        -1.9980   -0.0050   -0.5170 h1        1 724      0.123000
     28 H12A       -0.6250   -0.4430   -1.6510 h1        1 724      0.123000
     29 H15         1.8160   -1.7690    0.7750 h1        1 724      0.137000
     30 H16         3.9890   -0.2640    1.1270 ha        1 724      0.189000
     31 H18         2.4870   -1.4720    4.8800 h1        1 724      0.142000
     32 H21         4.4300    0.6950    5.2600 h1        1 724      0.087000
     33 H21A        3.5770   -0.1940    6.6210 h1        1 724      0.087000
     34 H21B        3.4170    1.6350    6.4810 h1        1 724      0.087000
     35 O10        -2.9310    0.8170   -3.1500 o         1 724     -0.297000
@<TRIPOS>BOND
     1    1    2 1   
     2    1    3 1   
     3    1   11 1   
     4    2   13 1   
     5    2   21 1   
     6    3   12 1   
     7    3   18 1   
     8    4    5 1   
     9    4    8 1   
    10    4   22 1   
    11    5    6 1   
    12    5   35 1   
    13    6    7 1   
    14    6   10 1   
    15    6   11 1   
    16    7    8 1   
    17    7   23 1   
    18    8    9 1   
    19   10   24 1   
    20   10   25 1   
    21   10   26 1   
    22   11   27 1   
    23   11   28 1   
    24   12   13 1   
    25   12   17 1   
    26   13   14 1   
    27   13   29 1   
    28   14   15 1   
    29   14   30 1   
    30   15   16 1   
    31   16   17 1   
    32   16   19 1   
    33   16   31 1   
    34   19   20 1   
    35   20   32 1   
    36   20   33 1   
    37   20   34 1   
@<TRIPOS>SUBSTRUCTURE
     1 724         1 TEMP              0 ****  ****    0 ROOT
