@<TRIPOS>MOLECULE
724
   35    35     1     0     0
SMALL
bcc


@<TRIPOS>ATOM
      1 N1         -0.6150   -0.6870   -0.7860 n         1 724     -0.267000
      2 N2          0.8000   -0.7510   -0.7720 na        1 724     -0.112000
      3 C3         -1.0540   -0.5390    0.5390 c2        1 724      0.328000
      4 N4          0.1360    1.9510   -2.9780 n         1 724     -0.391000
      5 C5         -0.2220    0.6610   -3.3920 c2        1 724      0.307000
      6 C6         -1.5450    0.3120   -2.7860 c3        1 724      0.015000
      7 N7         -1.9110    1.4670   -2.0070 n         1 724     -0.311000
      8 C8         -0.8840    2.4600   -2.1400 c2        1 724      0.375000
      9 O9         -0.9210    3.5820   -1.6710 o         1 724     -0.324000
     10 O10         0.4480   -0.0660   -4.0860 o         1 724     -0.317000
     11 C11        -2.5940   -0.0820   -3.8080 c3        1 724     -0.205000
     12 C12        -1.4640   -0.9370   -1.9350 c3        1 724     -0.051000
     13 C13         0.1450   -0.5120    1.4190 c2        1 724     -0.143000
     14 C14         1.2510   -0.6380    0.6280 c2        1 724     -0.040000
     15 C15         2.5280   -0.7260    1.2140 c1        1 724     -0.102000
     16 C16         2.6630   -0.6850    2.5900 c1        1 724     -0.160000
     17 C17         1.5500   -0.5580    3.3870 c1        1 724      0.055000
     18 C18         0.2830   -0.4710    2.8080 c1        1 724     -0.053000
     19 O19        -2.2020   -0.5400    0.9070 o         1 724     -0.311000
     20 O20         1.4950   -1.1330    4.6490 os        1 724     -0.205000
     21 C21         1.9860   -0.3190    5.6580 c3        1 724     -0.078000
     22 HN2         1.1360   -0.0670   -1.2530 hn        1 724      0.192000
     23 HN4         0.8950    2.3900   -3.2130 hn        1 724      0.269000
     24 HN7        -2.6830    1.5560   -1.5110 hn        1 724      0.253000
     25 H11        -2.4730   -1.0160   -4.0540 hc        1 724      0.098333
     26 H11A       -2.5020    0.4790   -4.6020 hc        1 724      0.098333
     27 H11B       -3.4840    0.0410   -3.4230 hc        1 724      0.098333
     28 H12        -1.0920   -1.6670   -2.4630 h1        1 724      0.123000
     29 H12A       -2.3510   -1.1780   -1.6320 h1        1 724      0.123000
     30 H15         3.3170   -0.8160    0.6500 ha        1 724      0.152000
     31 H16         3.5640   -0.7480    3.0020 ha        1 724      0.146000
     32 H18        -0.5080   -0.3800    3.3740 ha        1 724      0.174000
     33 H21         1.5290   -0.5270    6.4960 h1        1 724      0.087667
     34 H21A        1.8310    0.6190    5.4260 h1        1 724      0.087667
     35 H21B        2.9470   -0.4750    5.7640 h1        1 724      0.087667
@<TRIPOS>BOND
     1    1    2 1   
     2    1    3 1   
     3    1   12 1   
     4    2   14 1   
     5    2   22 1   
     6    3   13 1   
     7    3   19 1   
     8    4    5 1   
     9    4    8 1   
    10    4   23 1   
    11    5    6 1   
    12    5   10 1   
    13    6    7 1   
    14    6   11 1   
    15    6   12 1   
    16    7    8 1   
    17    7   24 1   
    18    8    9 1   
    19   11   25 1   
    20   11   26 1   
    21   11   27 1   
    22   12   28 1   
    23   12   29 1   
    24   13   14 1   
    25   13   18 1   
    26   14   15 1   
    27   15   30 1   
    28   16   17 1   
    29   16   31 1   
    30   17   20 1   
    31   18   32 1   
    32   20   21 1   
    33   21   33 1   
    34   21   34 1   
    35   21   35 1   
@<TRIPOS>SUBSTRUCTURE
     1 724         1 TEMP              0 ****  ****    0 ROOT
