@<TRIPOS>MOLECULE
724
   35    37     1     0     0
SMALL
bcc


@<TRIPOS>ATOM
      1 N1         -0.2910    0.5430    1.3190 n         1 724     -0.385100
      2 N2          0.1880   -0.7770    1.1740 na        1 724     -0.091800
      3 C3          0.6470    1.4760    0.7110 c         1 724      0.685100
      4 N4         -4.6060   -0.4810   -0.4070 n         1 724     -0.611500
      5 C5         -3.8410    0.6760   -0.2160 c         1 724      0.694500
      6 C6         -2.3370    0.2300   -0.1970 c3        1 724     -0.002600
      7 N7         -2.4240   -1.2400   -0.2090 n         1 724     -0.521900
      8 C8         -3.7640   -1.6310   -0.4590 c         1 724      0.785500
      9 O9         -4.1700   -2.7890   -0.6440 o         1 724     -0.610500
     10 C11        -1.6430    0.8330   -1.4140 c3        1 724     -0.120100
     11 C12        -1.7080    0.7690    1.1130 c3        1 724      0.092000
     12 C13         1.8800    0.6920    0.4340 ca        1 724     -0.166600
     13 C14         1.5720   -0.6640    0.7750 ca        1 724     -0.090200
     14 C15         2.5250   -1.6630    0.6260 ca        1 724     -0.105000
     15 C16         3.7820   -1.3070    0.1220 ca        1 724     -0.163000
     16 C17         4.0710    0.0200   -0.2150 ca        1 724      0.099100
     17 C18         3.1130    1.0510   -0.0610 ca        1 724     -0.057000
     18 O19         0.4170    2.6750    0.5420 o         1 724     -0.569500
     19 O20         5.2830    0.4510   -0.7180 os        1 724     -0.321900
     20 C21         6.2890   -0.5420   -0.8800 c3        1 724      0.111700
     21 HN2         0.1080   -1.2310    2.0770 hn        1 724      0.239700
     22 HN4        -5.5920   -0.5310   -0.4280 hn        1 724      0.358500
     23 HN7        -1.6900   -1.7560   -0.6310 hn        1 724      0.334500
     24 H11        -1.6200    1.9460   -1.3060 hc        1 724      0.063367
     25 H11A       -0.5930    0.4600   -1.4940 hc        1 724      0.063367
     26 H11B       -2.1870    0.5740   -2.3540 hc        1 724      0.063367
     27 H12        -2.2490    0.3130    1.9910 h1        1 724      0.092200
     28 H12A       -1.8630    1.8880    1.1250 h1        1 724      0.092200
     29 H15         2.3100   -2.7090    0.8880 ha        1 724      0.150000
     30 H16         4.5410   -2.0940   -0.0030 ha        1 724      0.146000
     31 H18         3.3610    2.0880   -0.3310 ha        1 724      0.173000
     32 H21         7.1590    0.0360   -1.2850 h1        1 724      0.047700
     33 H21A        6.5480   -1.0070    0.1020 h1        1 724      0.047700
     34 H21B        5.9600   -1.3210   -1.6100 h1        1 724      0.047700
     35 O10        -4.2790    1.8210   -0.0950 o         1 724     -0.571500
@<TRIPOS>BOND
     1    1    2 1   
     2    1    3 1   
     3    1   11 1   
     4    2   13 1   
     5    2   21 1   
     6    3   12 1   
     7    3   18 2   
     8    4    5 1   
     9    4    8 1   
    10    4   22 1   
    11    5    6 1   
    12    5   35 2   
    13    6    7 1   
    14    6   10 1   
    15    6   11 1   
    16    7    8 1   
    17    7   23 1   
    18    8    9 2   
    19   10   24 1   
    20   10   25 1   
    21   10   26 1   
    22   11   27 1   
    23   11   28 1   
    24   12   13 ar  
    25   12   17 ar  
    26   13   14 ar  
    27   14   15 ar  
    28   14   29 1   
    29   15   16 ar  
    30   15   30 1   
    31   16   17 ar  
    32   16   19 1   
    33   17   31 1   
    34   19   20 1   
    35   20   32 1   
    36   20   33 1   
    37   20   34 1   
@<TRIPOS>SUBSTRUCTURE
     1 724         1 TEMP              0 ****  ****    0 ROOT
