@<TRIPOS>MOLECULE
724
   35    36     1     0     0
SMALL
bcc


@<TRIPOS>ATOM
      1 N1         -0.8520    0.2820    0.9940 n         1 724     -0.211000
      2 N2          0.4820    0.4900    1.3060 na        1 724     -0.162000
      3 C3         -1.6140    1.3330    1.7230 c2        1 724      0.289000
      4 N4          0.1000    0.2380   -3.5670 n         1 724     -0.391000
      5 C5         -1.1070    0.1990   -2.8550 c2        1 724      0.301000
      6 C6         -0.8630    0.9470   -1.4990 c3        1 724     -0.018000
      7 N7          0.5820    1.2620   -1.5260 n         1 724     -0.322000
      8 C8          1.0980    0.9170   -2.8170 c2        1 724      0.365000
      9 O9          2.2530    1.1270   -3.2130 o         1 724     -0.315000
     10 C11        -1.7770    2.1640   -1.4430 c3        1 724     -0.237000
     11 C12        -1.2150   -0.0550   -0.3660 c3        1 724     -0.043000
     12 C13        -0.6350    2.0190    2.6100 c2        1 724     -0.312000
     13 C14         0.6320    1.4090    2.3010 c2        1 724      0.206000
     14 C15         1.9220    1.7730    2.9470 c3        1 724     -0.010000
     15 C16         2.8780    0.7160    2.9740 c1        1 724     -0.246000
     16 C17         3.7140   -0.1380    3.0290 c1        1 724     -0.013000
     17 C18        -0.7790    2.9820    3.5560 c1        1 724     -0.185000
     18 O19        -2.8260    1.4600    1.5640 o         1 724     -0.302000
     19 O20         4.6490   -1.0730    2.9690 os        1 724     -0.111000
     20 C21         4.8500   -1.7740    4.2160 c3        1 724     -0.081000
     21 HN2         1.1640   -0.1600    0.9770 hn        1 724      0.288000
     22 HN4         0.2670   -0.1700   -4.4520 hn        1 724      0.276000
     23 HN7         0.8360    2.1680   -1.1970 hn        1 724      0.228000
     24 H11        -1.5270    2.8960   -2.2480 hc        1 724      0.107000
     25 H11A       -2.8360    1.8300   -1.5790 hc        1 724      0.107000
     26 H11B       -1.6940    2.6720   -0.4510 hc        1 724      0.107000
     27 H12        -2.3400   -0.1670   -0.3530 h1        1 724      0.134500
     28 H12A       -0.7510   -1.0520   -0.6160 h1        1 724      0.134500
     29 H15         2.3440    2.6680    2.3970 hc        1 724      0.163000
     30 H16         1.6740    2.1260    3.9960 hc        1 724      0.163000
     31 H18        -1.7470    3.4450    3.7610 ha        1 724      0.087000
     32 H21         3.9130   -2.3000    4.5160 h1        1 724      0.097333
     33 H21A        5.1790   -1.0620    5.0070 h1        1 724      0.097333
     34 H21B        5.6600   -2.5010    3.9590 h1        1 724      0.097333
     35 O10        -2.1520   -0.3300   -3.2330 o         1 724     -0.287000
@<TRIPOS>BOND
     1    1    2 1   
     2    1    3 1   
     3    1   11 1   
     4    2   13 1   
     5    2   21 1   
     6    3   12 1   
     7    3   18 1   
     8    4    5 1   
     9    4    8 1   
    10    4   22 1   
    11    5    6 1   
    12    5   35 1   
    13    6    7 1   
    14    6   10 1   
    15    6   11 1   
    16    7    8 1   
    17    7   23 1   
    18    8    9 1   
    19   10   24 1   
    20   10   25 1   
    21   10   26 1   
    22   11   27 1   
    23   11   28 1   
    24   12   13 1   
    25   12   17 1   
    26   13   14 1   
    27   14   15 1   
    28   14   29 1   
    29   14   30 1   
    30   15   16 1   
    31   16   19 1   
    32   17   31 1   
    33   19   20 1   
    34   20   32 1   
    35   20   33 1   
    36   20   34 1   
@<TRIPOS>SUBSTRUCTURE
     1 724         1 TEMP              0 ****  ****    0 ROOT
