@<TRIPOS>MOLECULE
727
   42    45     1     0     0
SMALL
bcc


@<TRIPOS>ATOM
      1 N1         -0.2620   -0.5290    0.0050 n         1 727     -0.398100
      2 N2          1.1270   -0.3010   -0.1110 na        1 727     -0.092800
      3 C3         -0.7010   -0.2160    1.3540 c         1 727      0.687100
      4 N4          0.7960    2.7990   -1.1790 n         1 727     -0.600500
      5 C5          0.3510    1.7570   -2.0000 c         1 727      0.717500
      6 C6         -1.0930    1.3700   -1.5090 c3        1 727      0.051700
      7 N7         -1.3160    2.2860   -0.3790 n         1 727     -0.542900
      8 C8         -0.1570    3.0720   -0.1580 c         1 727      0.798500
      9 O9          0.0010    3.9040    0.7490 o         1 727     -0.608500
     10 C11        -2.0940    1.5380   -2.6290 ca        1 727     -0.099300
     11 C12        -1.1010   -0.1320   -1.1060 c3        1 727      0.071000
     12 C13         0.5370   -0.1060    2.1670 ca        1 727     -0.162600
     13 C14         1.6270   -0.2020    1.2430 ca        1 727     -0.087200
     14 C15         2.9400   -0.1170    1.6870 ca        1 727     -0.101000
     15 C16         3.1610    0.0750    3.0560 ca        1 727     -0.160000
     16 C17         2.0900    0.1740    3.9510 ca        1 727      0.103100
     17 C18         0.7460    0.0850    3.5140 ca        1 727     -0.051000
     18 O19        -1.8860   -0.1010    1.6790 o         1 727     -0.585500
     19 O20         2.2260    0.3510    5.3140 os        1 727     -0.320900
     20 C21         3.5510    0.5420    5.7970 c3        1 727      0.111700
     21 C22        -3.3190    2.1840   -2.4330 ca        1 727     -0.107000
     22 C23        -4.2330    2.2880   -3.4830 ca        1 727     -0.134000
     23 C24        -3.9340    1.7480   -4.7320 ca        1 727     -0.117000
     24 C25        -2.7150    1.1010   -4.9320 ca        1 727     -0.134000
     25 C26        -1.7990    0.9950   -3.8880 ca        1 727     -0.107000
     26 HN2         1.5310   -1.1010   -0.5870 hn        1 727      0.241700
     27 HN4         1.6800    3.2350   -1.2240 hn        1 727      0.357500
     28 HN7        -1.8480    1.9740    0.4000 hn        1 727      0.342500
     29 H12        -0.7850   -0.7170   -2.0170 h1        1 727      0.096200
     30 H12A       -2.1530   -0.4220   -0.8200 h1        1 727      0.096200
     31 H15         3.7890   -0.1910    0.9930 ha        1 727      0.151000
     32 H16         4.1980    0.1500    3.4160 ha        1 727      0.146000
     33 H18        -0.0820    0.1700    4.2340 ha        1 727      0.174000
     34 H21         4.0220    1.4360    5.3210 h1        1 727      0.048367
     35 H21A        3.4030    0.7100    6.8940 h1        1 727      0.048367
     36 H21B        4.1700   -0.3710    5.6180 h1        1 727      0.048367
     37 H22        -3.5830    2.6220   -1.4580 ha        1 727      0.151500
     38 H23        -5.1920    2.8010   -3.3190 ha        1 727      0.136000
     39 H24        -4.6560    1.8320   -5.5580 ha        1 727      0.134000
     40 H25        -2.4700    0.6750   -5.9160 ha        1 727      0.136000
     41 H26        -0.8310    0.4950   -4.0600 ha        1 727      0.151500
     42 O10         0.9940    1.2380   -2.9140 o         1 727     -0.590500
@<TRIPOS>BOND
     1    1    2 1   
     2    1    3 1   
     3    1   11 1   
     4    2   13 1   
     5    2   26 1   
     6    3   12 1   
     7    3   18 2   
     8    4    5 1   
     9    4    8 1   
    10    4   27 1   
    11    5    6 1   
    12    5   42 2   
    13    6    7 1   
    14    6   10 1   
    15    6   11 1   
    16    7    8 1   
    17    7   28 1   
    18    8    9 2   
    19   10   21 ar  
    20   10   25 ar  
    21   11   29 1   
    22   11   30 1   
    23   12   13 ar  
    24   12   17 ar  
    25   13   14 ar  
    26   14   15 ar  
    27   14   31 1   
    28   15   16 ar  
    29   15   32 1   
    30   16   17 ar  
    31   16   19 1   
    32   17   33 1   
    33   19   20 1   
    34   20   34 1   
    35   20   35 1   
    36   20   36 1   
    37   21   22 ar  
    38   21   37 1   
    39   22   23 ar  
    40   22   38 1   
    41   23   24 ar  
    42   23   39 1   
    43   24   25 ar  
    44   24   40 1   
    45   25   41 1   
@<TRIPOS>SUBSTRUCTURE
     1 727         1 TEMP              0 ****  ****    0 ROOT
