@<TRIPOS>MOLECULE
727
   42    45     1     0     0
SMALL
bcc


@<TRIPOS>ATOM
      1 N1          0.2290    1.4280   -0.6400 n         1 727     -0.398100
      2 N2          0.8480    1.5390    0.6230 na        1 727     -0.092800
      3 C3          1.0330    0.5860   -1.5100 c         1 727      0.687100
      4 N4         -0.7920   -0.9980    1.9410 n         1 727     -0.600500
      5 C5         -1.5080    0.1520    1.5890 c         1 727      0.717500
      6 C6         -1.8200    0.0450    0.0510 c3        1 727      0.051700
      7 N7         -1.1920   -1.2300   -0.3280 n         1 727     -0.542900
      8 C8         -0.5290   -1.7940    0.7920 c         1 727      0.798500
      9 O9          0.1410   -2.8380    0.7950 o         1 727     -0.608500
     10 C11        -3.3120    0.0780   -0.1890 ca        1 727     -0.099300
     11 C12        -1.2120    1.2800   -0.6710 c3        1 727      0.071000
     12 C13         2.3500    0.4530   -0.8370 ca        1 727     -0.162600
     13 C14         2.2070    1.0800    0.4420 ca        1 727     -0.087200
     14 C15         3.2690    1.1130    1.3360 ca        1 727     -0.101000
     15 C16         4.4720    0.5060    0.9530 ca        1 727     -0.160000
     16 C17         4.6010   -0.1090   -0.2970 ca        1 727      0.103100
     17 C18         3.5280   -0.1470   -1.2210 ca        1 727     -0.051000
     18 O19         0.6310    0.1300   -2.5830 o         1 727     -0.585500
     19 O20         5.7550   -0.7160   -0.7520 os        1 727     -0.320900
     20 C21         6.8350   -0.7930    0.1720 c3        1 727      0.111700
     21 C22        -3.9410   -0.8280   -1.0480 ca        1 727     -0.107000
     22 C23        -5.3170   -0.7430   -1.2710 ca        1 727     -0.134000
     23 C24        -6.0730    0.2440   -0.6430 ca        1 727     -0.117000
     24 C25        -5.4490    1.1510    0.2140 ca        1 727     -0.134000
     25 C26        -4.0770    1.0710    0.4410 ca        1 727     -0.107000
     26 HN2         0.8300    2.5180    0.8900 hn        1 727      0.241700
     27 HN4        -0.4300   -1.2040    2.8360 hn        1 727      0.357500
     28 HN7        -0.7860   -1.3210   -1.2310 hn        1 727      0.342500
     29 H12        -1.6730    2.1960   -0.2010 h1        1 727      0.096200
     30 H12A       -1.4960    1.2360   -1.7620 h1        1 727      0.096200
     31 H15         3.1790    1.5910    2.3210 ha        1 727      0.151000
     32 H16         5.3170    0.5220    1.6580 ha        1 727      0.146000
     33 H18         3.6490   -0.6410   -2.1960 ha        1 727      0.174000
     34 H21         7.1990    0.2300    0.4350 h1        1 727      0.048367
     35 H21A        6.5330   -1.3520    1.0900 h1        1 727      0.048367
     36 H21B        7.6190   -1.3560   -0.3950 h1        1 727      0.048367
     37 H22        -3.3710   -1.6200   -1.5580 ha        1 727      0.151500
     38 H23        -5.8020   -1.4630   -1.9470 ha        1 727      0.136000
     39 H24        -7.1560    0.3080   -0.8210 ha        1 727      0.134000
     40 H25        -6.0400    1.9310    0.7160 ha        1 727      0.136000
     41 H26        -3.5960    1.7840    1.1320 ha        1 727      0.151500
     42 O10        -1.8060    1.0740    2.3510 o         1 727     -0.590500
@<TRIPOS>BOND
     1    1    2 1   
     2    1    3 1   
     3    1   11 1   
     4    2   13 1   
     5    2   26 1   
     6    3   12 1   
     7    3   18 2   
     8    4    5 1   
     9    4    8 1   
    10    4   27 1   
    11    5    6 1   
    12    5   42 2   
    13    6    7 1   
    14    6   10 1   
    15    6   11 1   
    16    7    8 1   
    17    7   28 1   
    18    8    9 2   
    19   10   21 ar  
    20   10   25 ar  
    21   11   29 1   
    22   11   30 1   
    23   12   13 ar  
    24   12   17 ar  
    25   13   14 ar  
    26   14   15 ar  
    27   14   31 1   
    28   15   16 ar  
    29   15   32 1   
    30   16   17 ar  
    31   16   19 1   
    32   17   33 1   
    33   19   20 1   
    34   20   34 1   
    35   20   35 1   
    36   20   36 1   
    37   21   22 ar  
    38   21   37 1   
    39   22   23 ar  
    40   22   38 1   
    41   23   24 ar  
    42   23   39 1   
    43   24   25 ar  
    44   24   40 1   
    45   25   41 1   
@<TRIPOS>SUBSTRUCTURE
     1 727         1 TEMP              0 ****  ****    0 ROOT
