@<TRIPOS>MOLECULE
728
   52    54     1     0     0
SMALL
bcc


@<TRIPOS>ATOM
      1 CAA        -0.5990    2.2160    0.4560 ca        1 728     -0.009000
      2 CAB         0.6670    2.5720    0.8440 ca        1 728     -0.224500
      3 CAC         1.4310    1.7240    1.7190 ca        1 728      0.299600
      4 NAG         2.6810    2.0580    2.0980 nv        1 728     -0.795200
      5 CAD         0.8140    0.5090    2.1770 ca        1 728     -0.224500
      6 CAE        -0.4540    0.1740    1.7760 ca        1 728     -0.009000
      7 CAF        -1.1930    1.0080    0.9000 ca        1 728     -0.316300
      8 CAH        -2.4950    0.6000    0.4180 c3        1 728      0.241100
      9 NAI        -3.5790    1.2210    1.3800 ny        1 728     -0.687800
     10 CAJ        -4.9080    0.6130    1.2380 c         1 728      0.494100
     11 OAL        -5.2930   -0.3250    1.9230 o         1 728     -0.344100
     12 N          -5.8350    1.1040    0.1510 ny        1 728     -0.638800
     13 CA         -6.8480    2.0780    0.6790 c3        1 728      0.008800
     14 C          -6.2310    3.4900    0.8430 c         1 728      0.653100
     15 O          -4.9800    3.5770    0.6970 o         1 728     -0.703100
     16 NAP        -7.0530    4.5130    1.1190 n         1 728     -0.382800
     17 CAQ        -8.4850    4.3770    1.3650 c3        1 728      0.065000
     18 CAR        -8.9870    5.7290    1.8930 c3        1 728     -0.088400
     19 CAS        -7.7780    6.6560    1.9570 c3        1 728     -0.089400
     20 CAT        -6.5880    5.9060    1.3150 c3        1 728      0.145000
     21 CAU        -6.1510    6.5720    0.0380 ca        1 728     -0.109300
     22 CAX        -7.0750    6.7150   -1.0050 ca        1 728     -0.123000
     23 CAW        -6.7250    7.3680   -2.1840 ca        1 728     -0.109000
     24 CAV        -5.4400    7.8920   -2.3300 ca        1 728     -0.099000
     25 CAY        -4.5130    7.7600   -1.2980 ca        1 728     -0.100000
     26 CAZ        -4.8590    7.0990   -0.1130 ca        1 728     -0.003900
     27 Br         -3.5580    6.9890    1.2370 br        1 728     -0.079100
     28 H1         -1.1590    2.8750   -0.2290 ha        1 728      0.144500
     29 H2          1.1120    3.5110    0.4740 ha        1 728      0.171500
     30 H3          3.1090    2.8900    1.7640 hn        1 728      0.466300
     31 H4          3.2110    1.4580    2.6890 hn        1 728      0.466300
     32 H5          1.3740   -0.1650    2.8470 ha        1 728      0.171500
     33 H6         -0.8980   -0.7740    2.1240 ha        1 728      0.144500
     34 H7         -2.7460    1.0100   -0.5980 hx        1 728      0.097200
     35 H8         -2.6560   -0.5120    0.4640 hx        1 728      0.097200
     36 H9         -3.2590    1.0580    2.3520 hn        1 728      0.498300
     37 H10        -6.3340    0.2830   -0.2320 hn        1 728      0.495300
     38 H11        -7.6990    2.1140   -0.0670 hx        1 728      0.146700
     39 H12        -7.2410    1.7030    1.6690 hx        1 728      0.146700
     40 H13        -8.6670    3.5600    2.1170 h1        1 728      0.058700
     41 H14        -9.0070    4.1060    0.4050 h1        1 728      0.058700
     42 H15        -9.4500    5.6020    2.9040 hc        1 728      0.085200
     43 H16        -9.7690    6.1390    1.2060 hc        1 728      0.085200
     44 H17        -7.9760    7.6120    1.4090 hc        1 728      0.090700
     45 H18        -7.5280    6.9130    3.0170 hc        1 728      0.090700
     46 H19        -5.7160    5.8640    2.0370 h1        1 728      0.101700
     47 H20        -8.0980    6.3280   -0.8780 ha        1 728      0.133000
     48 H21        -7.4640    7.4830   -2.9930 ha        1 728      0.158000
     49 H22        -5.1590    8.4220   -3.2550 ha        1 728      0.163000
     50 H23        -3.5060    8.1940   -1.4170 ha        1 728      0.165000
     51 HAI2       -3.6050    2.2500    1.2260 hn        1 728      0.498300
     52 H24        -5.3000    1.5730   -0.6000 hn        1 728      0.495300
@<TRIPOS>BOND
     1    1    2 ar  
     2    1    7 ar  
     3    1   28 1   
     4    2    3 ar  
     5    2   29 1   
     6    3    4 1   
     7    3    5 ar  
     8    4   30 1   
     9    4   31 1   
    10    5    6 ar  
    11    5   32 1   
    12    6    7 ar  
    13    6   33 1   
    14    7    8 1   
    15    8    9 1   
    16    8   34 1   
    17    8   35 1   
    18    9   10 1   
    19    9   36 1   
    20    9   51 1   
    21   10   11 2   
    22   10   12 1   
    23   12   13 1   
    24   12   37 1   
    25   12   52 1   
    26   13   14 1   
    27   13   38 1   
    28   13   39 1   
    29   14   15 2   
    30   14   16 1   
    31   16   17 1   
    32   16   20 1   
    33   17   18 1   
    34   17   40 1   
    35   17   41 1   
    36   18   19 1   
    37   18   42 1   
    38   18   43 1   
    39   19   20 1   
    40   19   44 1   
    41   19   45 1   
    42   20   21 1   
    43   20   46 1   
    44   21   22 ar  
    45   21   26 ar  
    46   22   23 ar  
    47   22   47 1   
    48   23   24 ar  
    49   23   48 1   
    50   24   25 ar  
    51   24   49 1   
    52   25   26 ar  
    53   25   50 1   
    54   26   27 1   
@<TRIPOS>SUBSTRUCTURE
     1 728         1 TEMP              0 ****  ****    0 ROOT
