@<TRIPOS>MOLECULE
728
   53    55     1     0     0
SMALL
bcc


@<TRIPOS>ATOM
      1 CAA        -0.2810    1.1480    0.2800 ca        1 728     -0.071500
      2 CAB         1.1070    1.2000    0.1590 ca        1 728     -0.085000
      3 CAC         1.8630    1.8280    1.1670 ca        1 728     -0.007400
      4 NAG         3.3250    1.8360    1.0790 n4        1 728     -0.715000
      5 CAD         1.2270    2.4240    2.2690 ca        1 728     -0.085000
      6 CAE        -0.1640    2.3630    2.3710 ca        1 728     -0.071500
      7 CAF        -0.9230    1.7150    1.3890 ca        1 728     -0.132300
      8 CAH        -2.3860    1.4970    1.6030 c3        1 728      0.166100
      9 NAI        -3.2530    2.4640    0.8410 n4        1 728     -0.654800
     10 CAJ        -4.6880    2.0910    0.9490 c         1 728      0.647100
     11 OAL        -5.1440    1.1230    1.5260 o         1 728     -0.356000
     12 N          -6.3670    0.9050   -1.0650 n3        1 728     -0.972800
     13 CA         -7.3990    1.7140   -0.5090 c3        1 728      0.123500
     14 C          -6.8340    2.9130    0.2700 c2        1 728      0.505600
     15 O          -5.4420    3.0890    0.3750 os        1 728     -0.445700
     16 NAP        -7.5360    3.8860    0.7980 nh        1 728     -0.094100
     17 CAQ        -9.0110    3.9370    0.7220 c3        1 728     -0.015700
     18 CAR        -9.4700    5.1300    1.5660 c3        1 728     -0.098400
     19 CAS        -8.2260    5.7400    2.1990 c3        1 728     -0.090400
     20 CAT        -6.9950    5.0560    1.5590 c3        1 728      0.059300
     21 CAU        -6.2120    6.0040    0.6950 ca        1 728     -0.126300
     22 CAX        -6.8980    6.7480   -0.2750 ca        1 728     -0.102000
     23 CAW        -6.2400    7.7100   -1.0420 ca        1 728     -0.078000
     24 CAV        -4.8810    7.9460   -0.8410 ca        1 728     -0.075000
     25 CAY        -4.1810    7.2100    0.1170 ca        1 728     -0.093000
     26 CAZ        -4.8380    6.2330    0.8690 ca        1 728     -0.008900
     27 BR         -3.7990    5.3110    2.1670 br        1 728     -0.122100
     28 H1         -0.8600    0.6220   -0.5000 ha        1 728      0.177500
     29 H2          1.5870    0.7310   -0.7200 ha        1 728      0.191000
     30 H3          3.7020    0.9920    1.5380 hn        1 728      0.484800
     31 H4          3.7080    2.6680    1.5500 hn        1 728      0.484800
     32 H5          1.8000    2.9290    3.0700 ha        1 728      0.191000
     33 H6         -0.6480    2.8110    3.2580 ha        1 728      0.177500
     34 H7         -2.6710    0.4490    1.2760 hx        1 728      0.138200
     35 H8         -2.6500    1.6020    2.6980 hx        1 728      0.138200
     36 H9         -2.9880    2.4760   -0.1540 hn        1 728      0.491800
     37 H10        -6.3280    0.9490   -2.0640 hn        1 728      0.422300
     38 H11        -8.0810    2.1620   -1.2980 h1        1 728      0.120700
     39 H12        -8.0430    1.1440    0.2320 h1        1 728      0.120700
     40 H13        -9.4280    2.9660    1.1170 h1        1 728      0.112200
     41 H14        -9.3150    4.0540   -0.3580 h1        1 728      0.112200
     42 H15       -10.1950    4.7910    2.3520 hc        1 728      0.110200
     43 H16        -9.9990    5.8760    0.9180 hc        1 728      0.110200
     44 H17        -8.1880    6.8480    2.0310 hc        1 728      0.109700
     45 H18        -8.2130    5.5650    3.3060 hc        1 728      0.109700
     46 H19        -6.3350    4.6280    2.3720 h1        1 728      0.101700
     47 H20        -7.9810    6.5910   -0.4150 ha        1 728      0.154000
     48 H21        -6.8020    8.2950   -1.7920 ha        1 728      0.186000
     49 H22        -4.3590    8.7250   -1.4250 ha        1 728      0.186000
     50 H23        -3.1120    7.4270    0.2840 ha        1 728      0.171000
     51 HAG3        3.6260    1.8410    0.0950 hn        1 728      0.484800
     52 HAI2       -3.1670    3.4600    1.2250 hn        1 728      0.491800
     53 H24        -6.3960   -0.0410   -0.7390 hn        1 728      0.422300
@<TRIPOS>BOND
     1    1    2 ar  
     2    1    7 ar  
     3    1   28 1   
     4    2    3 ar  
     5    2   29 1   
     6    3    4 1   
     7    3    5 ar  
     8    4   30 1   
     9    4   31 1   
    10    4   51 1   
    11    5    6 ar  
    12    5   32 1   
    13    6    7 ar  
    14    6   33 1   
    15    7    8 1   
    16    8    9 1   
    17    8   34 1   
    18    8   35 1   
    19    9   10 1   
    20    9   36 1   
    21    9   52 1   
    22   10   11 2   
    23   10   15 1   
    24   12   13 1   
    25   12   37 1   
    26   12   53 1   
    27   13   14 1   
    28   13   38 1   
    29   13   39 1   
    30   14   15 1   
    31   14   16 2   
    32   16   17 1   
    33   16   20 1   
    34   17   18 1   
    35   17   40 1   
    36   17   41 1   
    37   18   19 1   
    38   18   42 1   
    39   18   43 1   
    40   19   20 1   
    41   19   44 1   
    42   19   45 1   
    43   20   21 1   
    44   20   46 1   
    45   21   22 ar  
    46   21   26 ar  
    47   22   23 ar  
    48   22   47 1   
    49   23   24 ar  
    50   23   48 1   
    51   24   25 ar  
    52   24   49 1   
    53   25   26 ar  
    54   25   50 1   
    55   26   27 1   
@<TRIPOS>SUBSTRUCTURE
     1 728         1 TEMP              0 ****  ****    0 ROOT
