@<TRIPOS>MOLECULE
728
   52    54     1     0     0
SMALL
bcc


@<TRIPOS>ATOM
      1 CAA        -0.5730    2.2760    0.5020 ca        1 728     -0.009000
      2 CAB         0.6790    2.6380    0.9290 ca        1 728     -0.224500
      3 CAC         1.4350    1.7770    1.7970 ca        1 728      0.299600
      4 NAG         2.6720    2.1170    2.2140 nh        1 728     -0.795200
      5 CAD         0.8250    0.5410    2.2080 ca        1 728     -0.224500
      6 CAE        -0.4280    0.2010    1.7700 ca        1 728     -0.009000
      7 CAF        -1.1590    1.0480    0.9000 ca        1 728     -0.316300
      8 CAH        -2.4450    0.6360    0.3780 c3        1 728      0.241100
      9 NAI        -3.5580    1.2150    1.3310 n4        1 728     -0.687800
     10 CAJ        -4.8750    0.5930    1.1430 c         1 728      0.494100
     11 OAL        -5.2620   -0.3680    1.7930 o         1 728     -0.344100
     12 N          -5.7850    1.1010    0.0500 n4        1 728     -0.638800
     13 CA         -6.8230    2.0460    0.5810 c3        1 728      0.008800
     14 C          -6.2300    3.4610    0.7970 c         1 728      0.653100
     15 O          -4.9780    3.5700    0.6820 o         1 728     -0.703100
     16 NAP        -7.0740    4.4650    1.0820 n         1 728     -0.382800
     17 CAQ        -8.5080    4.3020    1.2920 c3        1 728      0.065000
     18 CAR        -9.0410    5.6310    1.8460 c3        1 728     -0.088400
     19 CAS        -7.8480    6.5730    1.9620 c3        1 728     -0.089400
     20 CAT        -6.6330    5.8580    1.3270 c3        1 728      0.145000
     21 CAU        -6.1770    6.5650    0.0790 ca        1 728     -0.109300
     22 CAX        -7.0800    6.7240   -0.9810 ca        1 728     -0.123000
     23 CAW        -6.7130    7.4130   -2.1340 ca        1 728     -0.109000
     24 CAV        -5.4330    7.9590   -2.2360 ca        1 728     -0.099000
     25 CAY        -4.5280    7.8120   -1.1870 ca        1 728     -0.100000
     26 CAZ        -4.8910    7.1130   -0.0290 ca        1 728     -0.003900
     27 BR         -3.6180    6.9840    1.3470 br        1 728     -0.079100
     28 H1         -1.1270    2.9460   -0.1770 ha        1 728      0.144500
     29 H2          1.1190    3.5920    0.5950 ha        1 728      0.171500
     30 H3          3.0950    2.9640    1.9120 hn        1 728      0.466300
     31 H4          3.1960    1.5080    2.8000 hn        1 728      0.466300
     32 H5          1.3800   -0.1430    2.8720 ha        1 728      0.171500
     33 H6         -0.8670   -0.7630    2.0820 ha        1 728      0.144500
     34 H7         -2.6790    1.0700   -0.6320 hx        1 728      0.097200
     35 H8         -2.5910   -0.4790    0.3890 hx        1 728      0.097200
     36 H9         -3.5960    2.2480    1.2050 hn        1 728      0.498300
     37 H10        -5.2410    1.5970   -0.6760 hn        1 728      0.495300
     38 H11        -7.6580    2.0910   -0.1820 hx        1 728      0.146700
     39 H12        -7.2330    1.6380    1.5510 hx        1 728      0.146700
     40 H13        -8.6950    3.4620    2.0180 h1        1 728      0.058700
     41 H14        -9.0050    4.0510    0.3130 h1        1 728      0.058700
     42 H15        -9.8150    6.0500    1.1530 hc        1 728      0.085200
     43 H16        -9.5250    5.4710    2.8420 hc        1 728      0.085200
     44 H17        -7.6250    6.8050    3.0340 hc        1 728      0.090700
     45 H18        -8.0480    7.5410    1.4360 hc        1 728      0.090700
     46 H19        -5.7770    5.8080    2.0670 h1        1 728      0.101700
     47 H20        -8.1000    6.3190   -0.8870 ha        1 728      0.133000
     48 H21        -7.4360    7.5410   -2.9550 ha        1 728      0.158000
     49 H22        -5.1400    8.5180   -3.1390 ha        1 728      0.163000
     50 H23        -3.5250    8.2620   -1.2710 ha        1 728      0.165000
     51 HAI2       -3.2570    1.0300    2.3050 hn        1 728      0.498300
     52 H24        -6.2640    0.2840   -0.3670 hn        1 728      0.495300
@<TRIPOS>BOND
     1    1    2 ar  
     2    1    7 ar  
     3    1   28 1   
     4    2    3 ar  
     5    2   29 1   
     6    3    4 1   
     7    3    5 ar  
     8    4   30 1   
     9    4   31 1   
    10    5    6 ar  
    11    5   32 1   
    12    6    7 ar  
    13    6   33 1   
    14    7    8 1   
    15    8    9 1   
    16    8   34 1   
    17    8   35 1   
    18    9   10 1   
    19    9   36 1   
    20    9   51 1   
    21   10   11 2   
    22   10   12 1   
    23   12   13 1   
    24   12   37 1   
    25   12   52 1   
    26   13   14 1   
    27   13   38 1   
    28   13   39 1   
    29   14   15 2   
    30   14   16 1   
    31   16   17 1   
    32   16   20 1   
    33   17   18 1   
    34   17   40 1   
    35   17   41 1   
    36   18   19 1   
    37   18   42 1   
    38   18   43 1   
    39   19   20 1   
    40   19   44 1   
    41   19   45 1   
    42   20   21 1   
    43   20   46 1   
    44   21   22 ar  
    45   21   26 ar  
    46   22   23 ar  
    47   22   47 1   
    48   23   24 ar  
    49   23   48 1   
    50   24   25 ar  
    51   24   49 1   
    52   25   26 ar  
    53   25   50 1   
    54   26   27 1   
@<TRIPOS>SUBSTRUCTURE
     1 728         1 TEMP              0 ****  ****    0 ROOT
