@<TRIPOS>MOLECULE
72X
   83    85     1     0     0
SMALL
bcc


@<TRIPOS>ATOM
      1 C1          0.1590    0.1240    0.1410 c3        1 72X      0.218100
      2 O2          1.4840    0.4120   -0.2910 oh        1 72X     -0.595800
      3 C3          0.0400    0.0120    1.6420 ca        1 72X     -0.128300
      4 C4          1.0510    0.5020    2.4770 ca        1 72X     -0.123000
      5 C5         -1.1160   -0.5330    2.2150 ca        1 72X     -0.133000
      6 C6          0.9240    0.4160    3.8640 ca        1 72X     -0.104000
      7 C7         -1.2360   -0.6160    3.6050 ca        1 72X      0.019400
      8 C8         -0.2140   -0.1460    4.4380 ca        1 72X     -0.100000
      9 C15        -0.7170    1.2850   -0.3650 c3        1 72X     -0.063400
     10 C18        -0.3620    2.6090    0.2790 c3        1 72X     -0.081400
     11 C21        -1.2040    3.7200   -0.3070 c3        1 72X     -0.082400
     12 C24        -0.8690    5.0510    0.3430 c3        1 72X      0.130400
     13 O27        -1.6700    6.0290   -0.3170 os        1 72X     -0.430600
     14 C28        -1.4850    7.3320    0.2130 c3        1 72X      0.114700
     15 C32        -2.2150   -3.4410   -5.8010 c3        1 72X      0.124500
     16 C33        -3.6510   -2.8720   -5.6410 c3        1 72X      0.094800
     17 C34        -2.3000   -4.7460   -6.6120 c3        1 72X     -0.117400
     18 N35        -3.8110   -1.4880   -6.1760 n4        1 72X     -0.759000
     19 C36        -0.9720   -5.4490   -6.8530 c3        1 72X     -0.083700
     20 C37        -1.2190   -6.6390   -7.7820 c3        1 72X     -0.076400
     21 C38         0.0680   -7.3910   -8.0500 c3        1 72X     -0.079900
     22 C39         1.1290   -6.4790   -8.6270 c3        1 72X     -0.085400
     23 C40         0.0790   -4.5290   -7.4570 c3        1 72X     -0.076400
     24 C41         1.3680   -5.2800   -7.7340 c3        1 72X     -0.079900
     25 N42        -1.5230   -3.6760   -4.4850 n4        1 72X     -0.671800
     26 O44        -1.8010   -1.3850   -4.1900 o         1 72X     -0.619100
     27 N45        -0.2390   -2.3760   -2.7670 n         1 72X     -0.365800
     28 C46         0.0690   -3.6820   -0.6710 c3        1 72X     -0.097400
     29 C47         0.4240   -2.4070    0.0610 c3        1 72X     -0.095400
     30 C48        -0.2850   -1.2040   -0.5410 c3        1 72X     -0.107700
     31 C49         0.0190   -1.1170   -2.0430 c3        1 72X      0.072000
     32 C50         0.3650   -3.5600   -2.1660 c3        1 72X      0.059000
     33 C51        -5.2220   -1.0300   -6.1000 c3        1 72X      0.077100
     34 CL1        -2.6380   -1.2890    4.2810 cl        1 72X     -0.065400
     35 HO2         2.0960   -0.0950    0.2580 ho        1 72X      0.417000
     36 H4          1.9430    0.9860    2.0480 ha        1 72X      0.149000
     37 H5         -1.9430   -0.8820    1.5790 ha        1 72X      0.132000
     38 H6          1.7270    0.8050    4.5110 ha        1 72X      0.160000
     39 H8         -0.3120   -0.2110    5.5340 ha        1 72X      0.169000
     40 H15        -1.7880    1.0310   -0.1520 hc        1 72X      0.042200
     41 H15A       -0.5860    1.3870   -1.4730 hc        1 72X      0.042200
     42 H18        -0.5230    2.5500    1.3880 hc        1 72X      0.061700
     43 H18A        0.7280    2.8210    0.1110 hc        1 72X      0.061700
     44 H21        -1.0290    3.7990   -1.4120 hc        1 72X      0.048200
     45 H21A       -2.2940    3.5020   -0.1570 hc        1 72X      0.048200
     46 H24         0.2170    5.3020    0.2130 h1        1 72X      0.032700
     47 H24A       -1.1130    5.0360    1.4390 h1        1 72X      0.032700
     48 H28        -2.1660    7.9780   -0.3960 h1        1 72X      0.040367
     49 H28A       -1.7750    7.3630    1.2920 h1        1 72X      0.040367
     50 H28B       -0.4220    7.6580    0.0930 h1        1 72X      0.040367
     51 H32        -1.5530   -2.7110   -6.3630 hx        1 72X      0.127700
     52 H33        -4.3760   -3.5370   -6.2030 hx        1 72X      0.127200
     53 H33A       -3.9730   -2.8480   -4.5590 hx        1 72X      0.127200
     54 H34        -2.7410   -4.4710   -7.6100 hc        1 72X      0.089200
     55 H34A       -3.0070   -5.4620   -6.1130 hc        1 72X      0.089200
     56 HN35       -3.5000   -1.4610   -7.1560 hn        1 72X      0.474300
     57 H36        -0.5790   -5.8660   -5.8820 hc        1 72X      0.037700
     58 H37        -1.9690   -7.3290   -7.3140 hc        1 72X      0.042950
     59 H37A       -1.6470   -6.2720   -8.7510 hc        1 72X      0.042950
     60 H38        -0.1410   -8.2270   -8.7700 hc        1 72X      0.060200
     61 H38A        0.4410   -7.8540   -7.0990 hc        1 72X      0.060200
     62 H39         2.0880   -7.0490   -8.7480 hc        1 72X      0.067700
     63 H39A        0.8160   -6.1320   -9.6470 hc        1 72X      0.067700
     64 H40        -0.3100   -4.0940   -8.4150 hc        1 72X      0.042950
     65 H40A        0.2980   -3.6770   -6.7590 hc        1 72X      0.042950
     66 H41         1.8210   -5.6180   -6.7650 hc        1 72X      0.060200
     67 H41A        2.1000   -4.5850   -8.2240 hc        1 72X      0.060200
     68 HN42       -0.6530   -4.1920   -4.6950 hn        1 72X      0.471300
     69 H46        -1.0110   -3.9330   -0.5060 hc        1 72X      0.076700
     70 H46A        0.6820   -4.5340   -0.2710 hc        1 72X      0.076700
     71 H47         0.1350   -2.5070    1.1430 hc        1 72X      0.082700
     72 H47A        1.5340   -2.2460    0.0230 hc        1 72X      0.082700
     73 H48        -1.3940   -1.3130   -0.3930 hc        1 72X      0.065700
     74 H49        -0.5840   -0.2900   -2.5140 h1        1 72X      0.110700
     75 H49A        1.1190   -0.8930   -2.1890 h1        1 72X      0.110700
     76 H50         1.4820   -3.4460   -2.3120 h1        1 72X      0.072200
     77 H50A        0.0430   -4.5050   -2.6800 h1        1 72X      0.072200
     78 H51        -5.2840    0.0150   -6.5140 hx        1 72X      0.122033
     79 H51A       -5.5620   -1.0270   -5.0290 hx        1 72X      0.122033
     80 H51B       -5.8800   -1.7120   -6.7050 hx        1 72X      0.122033
     81 H352       -3.2130   -0.8390   -5.6340 hn        1 72X      0.474300
     82 H422       -2.1090   -4.2620   -3.8820 hn        1 72X      0.471300
     83 C43        -1.1840   -2.3700   -3.7330 c         1 72X      0.640100
@<TRIPOS>BOND
     1    1    2 1   
     2    1    3 1   
     3    1    9 1   
     4    1   30 1   
     5    2   35 1   
     6    3    4 ar  
     7    3    5 ar  
     8    4    6 ar  
     9    4   36 1   
    10    5    7 ar  
    11    5   37 1   
    12    6    8 ar  
    13    6   38 1   
    14    7    8 ar  
    15    7   34 1   
    16    8   39 1   
    17    9   10 1   
    18    9   40 1   
    19    9   41 1   
    20   10   11 1   
    21   10   42 1   
    22   10   43 1   
    23   11   12 1   
    24   11   44 1   
    25   11   45 1   
    26   12   13 1   
    27   12   46 1   
    28   12   47 1   
    29   13   14 1   
    30   14   48 1   
    31   14   49 1   
    32   14   50 1   
    33   15   16 1   
    34   15   17 1   
    35   15   25 1   
    36   15   51 1   
    37   16   18 1   
    38   16   52 1   
    39   16   53 1   
    40   17   19 1   
    41   17   54 1   
    42   17   55 1   
    43   18   33 1   
    44   18   56 1   
    45   18   81 1   
    46   19   20 1   
    47   19   23 1   
    48   19   57 1   
    49   20   21 1   
    50   20   58 1   
    51   20   59 1   
    52   21   22 1   
    53   21   60 1   
    54   21   61 1   
    55   22   24 1   
    56   22   62 1   
    57   22   63 1   
    58   23   24 1   
    59   23   64 1   
    60   23   65 1   
    61   24   66 1   
    62   24   67 1   
    63   25   68 1   
    64   25   82 1   
    65   25   83 1   
    66   26   83 2   
    67   27   31 1   
    68   27   32 1   
    69   27   83 1   
    70   28   29 1   
    71   28   32 1   
    72   28   69 1   
    73   28   70 1   
    74   29   30 1   
    75   29   71 1   
    76   29   72 1   
    77   30   31 1   
    78   30   73 1   
    79   31   74 1   
    80   31   75 1   
    81   32   76 1   
    82   32   77 1   
    83   33   78 1   
    84   33   79 1   
    85   33   80 1   
@<TRIPOS>SUBSTRUCTURE
     1 72X         1 TEMP              0 ****  ****    0 ROOT
