@<TRIPOS>MOLECULE
730
   74    77     1     0     0
SMALL
bcc


@<TRIPOS>ATOM
      1 S1         18.3930   65.0730   27.5030 sy        1 730      1.526200
      2 O39        19.7260   64.7400   27.7990 o         1 730     -0.661800
      3 O38        18.2120   66.2800   26.7900 o         1 730     -0.661800
      4 N12        17.6670   63.8670   26.6950 n3        1 730     -0.906100
      5 C13        17.4430   63.8730   25.2790 c3        1 730      0.191500
      6 C24        15.9290   63.8600   24.9370 c         1 730      0.631100
      7 N26        15.4990   64.3270   23.7010 n         1 730     -0.451800
      8 C31        14.0740   64.5550   23.5080 c3        1 730      0.082000
      9 C30        13.7640   65.8200   22.7040 c3        1 730     -0.101900
     10 C29        14.6990   66.9580   23.0830 c3        1 730     -0.059700
     11 C32        14.3250   68.2690   22.4140 c3        1 730     -0.085400
     12 C33        14.1230   68.1360   20.9030 c3        1 730      0.185800
     13 N34        13.9170   69.4110   20.2510 nh        1 730     -0.847200
     14 C35        14.0200   69.4870   18.8180 c2        1 730      0.748100
     15 N37        14.2460   70.5910   18.1460 n2        1 730     -0.881100
     16 N36        13.8330   68.2640   18.0950 nh        1 730     -0.879800
     17 C28        16.1520   66.5760   22.8210 c3        1 730     -0.101900
     18 C27        16.3420   65.0560   22.7840 c3        1 730      0.082000
     19 O25        15.0990   63.3790   25.7370 o         1 730     -0.610100
     20 C14        18.1340   62.7140   24.5270 c3        1 730     -0.047100
     21 C15        18.2260   61.4340   25.2810 ca        1 730     -0.083300
     22 C20        19.4710   60.8120   25.4340 ca        1 730     -0.096000
     23 C19        19.5680   59.5880   26.0990 ca        1 730     -0.186900
     24 C21        20.9140   58.9490   26.2670 ce        1 730      0.637800
     25 N23        21.9250   59.5200   26.8520 n2        1 730     -0.834100
     26 N22        21.0280   57.6790   25.6660 nh        1 730     -0.894800
     27 C18        18.4240   58.9780   26.6200 ca        1 730     -0.115000
     28 C17        17.1850   59.6020   26.4770 ca        1 730     -0.128000
     29 C16        17.0840   60.8220   25.8100 ca        1 730     -0.124000
     30 C2         17.5070   65.1060   28.9330 ca        1 730     -0.389500
     31 C7         18.0100   64.4360   30.0820 ca        1 730     -0.047000
     32 C6         17.3310   64.4630   31.2720 ca        1 730     -0.135000
     33 C5         16.1000   65.1660   31.3850 ca        1 730      0.014000
     34 C11        15.3700   65.2120   32.6040 ca        1 730     -0.134000
     35 C10        14.1860   65.9040   32.6790 ca        1 730     -0.100000
     36 C9         13.6760   66.5830   31.5450 ca        1 730     -0.136000
     37 C8         14.3610   66.5550   30.3560 ca        1 730     -0.096000
     38 C4         15.5890   65.8450   30.2490 ca        1 730     -0.075000
     39 C3         16.3170   65.7970   29.0320 ca        1 730      0.041000
     40 HN12       17.2870   63.0630   27.1410 hn        1 730      0.463800
     41 H13        17.8760   64.8480   24.8870 h1        1 730      0.086700
     42 H311       13.5660   64.6160   24.5140 h1        1 730      0.057950
     43 H312       13.6530   63.6610   22.9670 h1        1 730      0.057950
     44 H301       13.8600   65.6000   21.6090 hc        1 730      0.055450
     45 H302       12.7020   66.1160   22.9020 hc        1 730      0.055450
     46 H29        14.5890   67.1240   24.1960 hc        1 730      0.056700
     47 H321       15.1340   69.0170   22.6320 hc        1 730      0.050200
     48 H322       13.3780   68.6540   22.8770 hc        1 730      0.050200
     49 H331       13.2010   67.5110   20.7200 h1        1 730      0.042700
     50 H332       15.0020   67.5800   20.4660 h1        1 730      0.042700
     51 HN34       14.3990   70.1590   20.7080 hn        1 730      0.393800
     52 HN37       14.4750   71.3940   18.6880 hn        1 730      0.391400
     53 H361       13.7740   68.4100   17.1070 hn        1 730      0.393300
     54 H362       13.0560   67.7340   18.4340 hn        1 730      0.393300
     55 H281       16.7990   67.0210   23.6210 hc        1 730      0.055450
     56 H282       16.5020   66.9900   21.8400 hc        1 730      0.055450
     57 H271       16.0810   64.6890   21.7470 h1        1 730      0.057950
     58 H272       17.4260   64.8090   22.9540 h1        1 730      0.057950
     59 H141       19.1690   63.0600   24.2540 hc        1 730      0.065200
     60 H142       17.5830   62.5260   23.5660 hc        1 730      0.065200
     61 H20        20.3790   61.2850   25.0270 ha        1 730      0.145000
     62 HN23       21.7520   60.4560   27.1470 hn        1 730      0.399400
     63 H221       21.8400   57.1560   25.9130 hn        1 730      0.398300
     64 H222       20.1860   57.1500   25.6900 hn        1 730      0.398300
     65 H18        18.4970   58.0170   27.1500 ha        1 730      0.132000
     66 H17        16.2820   59.1290   26.8900 ha        1 730      0.138000
     67 H16        16.1000   61.3100   25.7040 ha        1 730      0.160000
     68 H7         18.9760   63.9060   29.9980 ha        1 730      0.159000
     69 H6         17.7270   63.9450   32.1580 ha        1 730      0.142000
     70 H11        15.7730   64.6820   33.4810 ha        1 730      0.140000
     71 H10        13.6180   65.9410   33.6220 ha        1 730      0.137000
     72 H9         12.7260   67.1300   31.6330 ha        1 730      0.138000
     73 H8         13.9740   67.0780   29.4680 ha        1 730      0.138000
     74 H3         15.9160   66.3370   28.1560 ha        1 730      0.150000
@<TRIPOS>BOND
     1    1    2 2   
     2    1    3 2   
     3    1    4 1   
     4    1   30 1   
     5    4    5 1   
     6    4   40 1   
     7    5    6 1   
     8    5   20 1   
     9    5   41 1   
    10    6    7 1   
    11    6   19 2   
    12    7    8 1   
    13    7   18 1   
    14    8    9 1   
    15    8   42 1   
    16    8   43 1   
    17    9   10 1   
    18    9   44 1   
    19    9   45 1   
    20   10   11 1   
    21   10   17 1   
    22   10   46 1   
    23   11   12 1   
    24   11   47 1   
    25   11   48 1   
    26   12   13 1   
    27   12   49 1   
    28   12   50 1   
    29   13   14 1   
    30   13   51 1   
    31   14   15 2   
    32   14   16 1   
    33   15   52 1   
    34   16   53 1   
    35   16   54 1   
    36   17   18 1   
    37   17   55 1   
    38   17   56 1   
    39   18   57 1   
    40   18   58 1   
    41   20   21 1   
    42   20   59 1   
    43   20   60 1   
    44   21   22 ar  
    45   21   29 ar  
    46   22   23 ar  
    47   22   61 1   
    48   23   24 1   
    49   23   27 ar  
    50   24   25 2   
    51   24   26 1   
    52   25   62 1   
    53   26   63 1   
    54   26   64 1   
    55   27   28 ar  
    56   27   65 1   
    57   28   29 ar  
    58   28   66 1   
    59   29   67 1   
    60   30   31 ar  
    61   30   39 ar  
    62   31   32 ar  
    63   31   68 1   
    64   32   33 ar  
    65   32   69 1   
    66   33   34 ar  
    67   33   38 ar  
    68   34   35 ar  
    69   34   70 1   
    70   35   36 ar  
    71   35   71 1   
    72   36   37 ar  
    73   36   72 1   
    74   37   38 ar  
    75   37   73 1   
    76   38   39 ar  
    77   39   74 1   
@<TRIPOS>SUBSTRUCTURE
     1 730         1 TEMP              0 ****  ****    0 ROOT
