@<TRIPOS>MOLECULE
730
   78    80     1     0     0
SMALL
bcc


@<TRIPOS>ATOM
      1 S1         -0.6540    0.0350    0.4320 s4        1 730      1.698300
      2 O39        -0.3360    1.3580    0.5780 o         1 730     -0.468400
      3 O38        -1.9220   -0.4010    0.6690 o         1 730     -0.468400
      4 N12        -1.1680    0.3570   -1.9210 n8        1 730     -0.981800
      5 C13        -2.5610    0.6770   -2.2530 c3        1 730      0.091500
      6 C24        -2.8420    0.4970   -3.7670 c         1 730      0.631100
      7 N26        -4.1070    0.1650   -4.2180 n         1 730     -0.472800
      8 C31        -4.3740    0.1080   -5.6390 c3        1 730      0.093500
      9 C30        -5.1060   -1.1560   -6.1060 c3        1 730     -0.096400
     10 C29        -6.1120   -1.6710   -5.0880 c3        1 730     -0.067700
     11 C32        -7.3180   -2.3560   -5.7230 c3        1 730     -0.107400
     12 C33        -8.2420   -1.3990   -6.4740 c3        1 730      0.107800
     13 N34        -9.3580   -2.1700   -7.1590 ny        1 730     -0.788000
     14 C35       -10.2960   -1.2920   -7.9500 c2        1 730      0.609100
     15 N37       -10.2980   -0.0270   -8.0730 n2        1 730     -0.582100
     16 N36       -11.3750   -2.0450   -8.6870 nz        1 730     -0.821600
     17 C28        -6.4730   -0.5900   -4.0830 c3        1 730     -0.096400
     18 C27        -5.2120   -0.1330   -3.3360 c3        1 730      0.093500
     19 O25        -1.9100    0.6770   -4.5770 o         1 730     -0.587100
     20 C14        -2.9770    2.1060   -1.8440 c3        1 730     -0.043100
     21 C15        -1.9250    3.1500   -1.9960 ca        1 730     -0.118300
     22 C20        -1.3790    3.7470   -0.8550 ca        1 730     -0.070000
     23 C19        -0.4050    4.7470   -0.9770 ca        1 730     -0.240900
     24 C21         0.2210    5.2430    0.2700 ce        1 730      0.574800
     25 N23         0.6730    4.5780    1.2660 n2        1 730     -0.693100
     26 N22         0.3120    6.7380    0.3560 nz        1 730     -0.816600
     27 C18         0.0120    5.1730   -2.2420 ca        1 730     -0.085000
     28 C17        -0.5440    4.5880   -3.3800 ca        1 730     -0.104000
     29 C16        -1.5010    3.5790   -3.2610 ca        1 730     -0.074000
     30 C2          0.4730   -0.9890    0.2880 ca        1 730     -0.661500
     31 C7          1.8280   -0.5420    0.0580 ca        1 730     -0.060000
     32 C6          2.8770   -1.4070    0.0180 ca        1 730     -0.093000
     33 C5          2.6830   -2.8100    0.2100 ca        1 730      0.075000
     34 C11         3.7560   -3.7230    0.2070 ca        1 730     -0.150000
     35 C10         3.5250   -5.0710    0.4170 ca        1 730      0.001000
     36 C9          2.2090   -5.5520    0.6310 ca        1 730     -0.113000
     37 C8          1.1430   -4.6870    0.6350 ca        1 730     -0.071000
     38 C4          1.3490   -3.2880    0.4260 ca        1 730     -0.104000
     39 C3          0.2880   -2.3820    0.4500 ca        1 730      0.123000
     40 HN12       -0.5710    1.1070   -2.2420 hn        1 730      0.403800
     41 H13        -3.1980   -0.0510   -1.6630 h1        1 730      0.100700
     42 H311       -3.3990    0.1860   -6.2070 h1        1 730      0.068700
     43 H312       -5.0020    1.0080   -5.9080 h1        1 730      0.068700
     44 H301       -5.6000   -0.9090   -7.0810 hc        1 730      0.058450
     45 H302       -4.3550   -1.9640   -6.3180 hc        1 730      0.058450
     46 H29        -5.6010   -2.5000   -4.5030 hc        1 730      0.100700
     47 H321       -7.8960   -2.8690   -4.9050 hc        1 730      0.085200
     48 H322       -6.9240   -3.1420   -6.4250 hc        1 730      0.085200
     49 H331       -8.7120   -0.6730   -5.7500 hx        1 730      0.121700
     50 H332       -7.6660   -0.8440   -7.2690 hx        1 730      0.121700
     51 HN34       -9.8870   -2.6750   -6.4290 hn        1 730      0.484800
     52 HN37       -9.6440    0.6010   -7.6430 hn        1 730      0.537400
     53 H361      -11.9750   -2.5690   -8.0300 hn        1 730      0.516800
     54 H362      -10.9650   -2.6870   -9.3840 hn        1 730      0.516800
     55 H281       -6.9440    0.2850   -4.6000 hc        1 730      0.058450
     56 H282       -7.1990   -0.9810   -3.3240 hc        1 730      0.058450
     57 H271       -4.9080   -0.9520   -2.6200 h1        1 730      0.068700
     58 H272       -5.4680    0.7830   -2.7270 h1        1 730      0.068700
     59 H141       -3.3140    2.0670   -0.7710 hc        1 730      0.081200
     60 H142       -3.8730    2.4000   -2.4570 hc        1 730      0.081200
     61 H20        -1.7030    3.4130    0.1460 ha        1 730      0.155000
     62 HN23        0.6160    3.5790    1.2280 hn        1 730      0.486400
     63 H221       -0.6370    7.1270    0.3070 hn        1 730      0.479467
     64 H222        0.7580    7.0440    1.2350 hn        1 730      0.479467
     65 H18         0.7910    5.9430   -2.3640 ha        1 730      0.150000
     66 H17        -0.2170    4.9200   -4.3810 ha        1 730      0.180000
     67 H16        -1.9130    3.1070   -4.1700 ha        1 730      0.168000
     68 H7          1.9970    0.5410   -0.0710 ha        1 730      0.153000
     69 H6          3.9060   -1.0400   -0.1540 ha        1 730      0.183000
     70 H11         4.7830   -3.3520    0.0430 ha        1 730      0.179000
     71 H10         4.3680   -5.7870    0.4230 ha        1 730      0.186000
     72 H9          2.0570   -6.6330    0.8020 ha        1 730      0.183000
     73 H8          0.1190   -5.0560    0.8090 ha        1 730      0.159000
     74 H3         -0.7370   -2.7660    0.6260 ha        1 730      0.163000
     75 H122       -0.8960   -0.4770   -2.4200 hn        1 730      0.403800
     76 H342       -8.9190   -2.8670   -7.7830 hn        1 730      0.484800
     77 H363      -11.9820   -1.3640   -9.2000 hn        1 730      0.516800
     78 H223        0.8630    7.0840   -0.4380 hn        1 730      0.479467
@<TRIPOS>BOND
     1    1    2 1   
     2    1    3 1   
     3    1   30 1   
     4    4    5 1   
     5    4   40 1   
     6    4   75 1   
     7    5    6 1   
     8    5   20 1   
     9    5   41 1   
    10    6    7 1   
    11    6   19 2   
    12    7    8 1   
    13    7   18 1   
    14    8    9 1   
    15    8   42 1   
    16    8   43 1   
    17    9   10 1   
    18    9   44 1   
    19    9   45 1   
    20   10   11 1   
    21   10   17 1   
    22   10   46 1   
    23   11   12 1   
    24   11   47 1   
    25   11   48 1   
    26   12   13 1   
    27   12   49 1   
    28   12   50 1   
    29   13   14 1   
    30   13   51 1   
    31   13   76 1   
    32   14   15 2   
    33   14   16 1   
    34   15   52 1   
    35   16   53 1   
    36   16   54 1   
    37   16   77 1   
    38   17   18 1   
    39   17   55 1   
    40   17   56 1   
    41   18   57 1   
    42   18   58 1   
    43   20   21 1   
    44   20   59 1   
    45   20   60 1   
    46   21   22 ar  
    47   21   29 ar  
    48   22   23 ar  
    49   22   61 1   
    50   23   24 1   
    51   23   27 ar  
    52   24   25 2   
    53   24   26 1   
    54   25   62 1   
    55   26   63 1   
    56   26   64 1   
    57   26   78 1   
    58   27   28 ar  
    59   27   65 1   
    60   28   29 ar  
    61   28   66 1   
    62   29   67 1   
    63   30   31 ar  
    64   30   39 ar  
    65   31   32 ar  
    66   31   68 1   
    67   32   33 ar  
    68   32   69 1   
    69   33   34 ar  
    70   33   38 ar  
    71   34   35 ar  
    72   34   70 1   
    73   35   36 ar  
    74   35   71 1   
    75   36   37 ar  
    76   36   72 1   
    77   37   38 ar  
    78   37   73 1   
    79   38   39 ar  
    80   39   74 1   
@<TRIPOS>SUBSTRUCTURE
     1 730         1 TEMP              0 ****  ****    0 ROOT
