@<TRIPOS>MOLECULE
730
   78    80     1     0     0
SMALL
bcc


@<TRIPOS>ATOM
      1 S1         -0.9580   -0.3510    0.5000 s4        1 730      1.693300
      2 O39        -0.8100    0.9680    0.8080 o         1 730     -0.459400
      3 O38        -2.1930   -0.9270    0.4650 o         1 730     -0.459400
      4 N12        -1.1700    0.2310   -1.8700 n3        1 730     -0.981800
      5 C13        -2.5200    0.6510   -2.2570 c3        1 730      0.090500
      6 C24        -2.7880    0.4090   -3.7650 c         1 730      0.634100
      7 N26        -4.0730    0.1920   -4.2300 n         1 730     -0.470800
      8 C31        -4.3150    0.0700   -5.6520 c3        1 730      0.092500
      9 C30        -5.0860   -1.1880   -6.0690 c3        1 730     -0.096900
     10 C29        -6.1230   -1.6140   -5.0400 c3        1 730     -0.067700
     11 C32        -7.3360   -2.3070   -5.6530 c3        1 730     -0.107400
     12 C33        -8.2200   -1.3770   -6.4830 c3        1 730      0.107800
     13 N34        -9.3450   -2.1600   -7.1370 n4        1 730     -0.788000
     14 C35       -10.2410   -1.3130   -8.0040 c2        1 730      0.609100
     15 N37       -10.2060   -0.0590   -8.2090 n2        1 730     -0.582100
     16 N36       -11.3240   -2.0850   -8.7160 n4        1 730     -0.822600
     17 C28        -6.4700   -0.4640   -4.1110 c3        1 730     -0.096900
     18 C27        -5.2120   -0.0010   -3.3610 c3        1 730      0.092500
     19 O25        -1.8260    0.4280   -4.5590 o         1 730     -0.591100
     20 C14        -2.8410    2.1180   -1.9070 c3        1 730     -0.043100
     21 C15        -1.7330    3.1070   -2.0440 ca        1 730     -0.107300
     22 C20        -1.4750    3.9910   -0.9870 ca        1 730     -0.072000
     23 C19        -0.4810    4.9700   -1.1150 ca        1 730     -0.241900
     24 C21        -0.1920    5.8450    0.0450 ce        1 730      0.576800
     25 N23         0.0940    5.5510    1.2550 n2        1 730     -0.689100
     26 N22        -0.2600    7.3110   -0.2840 n4        1 730     -0.819600
     27 C18         0.2660    5.0690   -2.2940 ca        1 730     -0.090000
     28 C17         0.0060    4.1920   -3.3460 ca        1 730     -0.103000
     29 C16        -0.9880    3.2200   -3.2250 ca        1 730     -0.095000
     30 C2          0.2790   -1.2520    0.4430 ca        1 730     -0.659500
     31 C7          1.5970   -0.6650    0.5240 ca        1 730     -0.058000
     32 C6          2.7240   -1.4250    0.5650 ca        1 730     -0.095000
     33 C5          2.6520   -2.8520    0.5340 ca        1 730      0.075000
     34 C11         3.8030   -3.6630    0.6030 ca        1 730     -0.150000
     35 C10         3.6860   -5.0400    0.5880 ca        1 730     -0.002000
     36 C9          2.4130   -5.6560    0.4960 ca        1 730     -0.113000
     37 C8          1.2740   -4.8920    0.4220 ca        1 730     -0.072000
     38 C4          1.3610   -3.4650    0.4410 ca        1 730     -0.103000
     39 C3          0.2200   -2.6630    0.3910 ca        1 730      0.123000
     40 HN12       -0.5140    0.9740   -2.0640 hn        1 730      0.403300
     41 H13        -3.2250   -0.0050   -1.6560 h1        1 730      0.101700
     42 H311       -4.9040    0.9770   -5.9760 h1        1 730      0.069950
     43 H312       -3.3290    0.0830   -6.2050 h1        1 730      0.069950
     44 H301       -4.3630   -2.0320   -6.2310 hc        1 730      0.058200
     45 H302       -5.5600   -0.9710   -7.0610 hc        1 730      0.058200
     46 H29        -5.6440   -2.4180   -4.3960 hc        1 730      0.100700
     47 H321       -6.9510   -3.1470   -6.2950 hc        1 730      0.085200
     48 H322       -7.9410   -2.7500   -4.8150 hc        1 730      0.085200
     49 H331       -8.6810   -0.5920   -5.8170 hx        1 730      0.121700
     50 H332       -7.6140   -0.8910   -7.3010 hx        1 730      0.121700
     51 HN34       -8.9140   -2.9110   -7.7020 hn        1 730      0.484300
     52 HN37       -9.5440    0.5790   -7.8060 hn        1 730      0.537400
     53 H361      -10.9170   -2.7810   -9.3610 hn        1 730      0.516800
     54 H362      -11.9510   -2.5490   -8.0400 hn        1 730      0.516800
     55 H281       -7.2250   -0.7850   -3.3470 hc        1 730      0.058200
     56 H282       -6.9020    0.3920   -4.6910 hc        1 730      0.058200
     57 H271       -4.9620   -0.7770   -2.5800 h1        1 730      0.069950
     58 H272       -5.4460    0.9660   -2.8290 h1        1 730      0.069950
     59 H141       -3.6950    2.4530   -2.5580 hc        1 730      0.080200
     60 H142       -3.2140    2.1310   -0.8440 hc        1 730      0.080200
     61 H20        -2.0530    3.9110   -0.0510 ha        1 730      0.156000
     62 HN23        0.1570    4.5890    1.5180 hn        1 730      0.487400
     63 H221        0.3740    7.5020   -1.0670 hn        1 730      0.478800
     64 H222       -1.2210    7.5410   -0.5610 hn        1 730      0.478800
     65 H18         1.0750    5.8100   -2.4000 ha        1 730      0.153000
     66 H17         0.5910    4.2660   -4.2800 ha        1 730      0.180000
     67 H16        -1.1830    2.5380   -4.0720 ha        1 730      0.176000
     68 H7          1.6670    0.4360    0.5730 ha        1 730      0.156000
     69 H6          3.7210   -0.9530    0.6360 ha        1 730      0.182000
     70 H11         4.7970   -3.1870    0.6780 ha        1 730      0.178000
     71 H10         4.5880   -5.6770    0.6500 ha        1 730      0.185000
     72 H9          2.3510   -6.7580    0.4910 ha        1 730      0.182000
     73 H8          0.2810   -5.3650    0.3580 ha        1 730      0.158000
     74 H3         -0.7740   -3.1520    0.3280 ha        1 730      0.161000
     75 H122       -0.8960   -0.5660   -2.4260 hn        1 730      0.403300
     76 H342       -9.9020   -2.5990   -6.3850 hn        1 730      0.484300
     77 H363      -11.9030   -1.4230   -9.2850 hn        1 730      0.516800
     78 H223        0.0090    7.8960    0.5220 hn        1 730      0.478800
@<TRIPOS>BOND
     1    1    2 1   
     2    1    3 1   
     3    1   30 1   
     4    4    5 1   
     5    4   40 1   
     6    4   75 1   
     7    5    6 1   
     8    5   20 1   
     9    5   41 1   
    10    6    7 1   
    11    6   19 2   
    12    7    8 1   
    13    7   18 1   
    14    8    9 1   
    15    8   42 1   
    16    8   43 1   
    17    9   10 1   
    18    9   44 1   
    19    9   45 1   
    20   10   11 1   
    21   10   17 1   
    22   10   46 1   
    23   11   12 1   
    24   11   47 1   
    25   11   48 1   
    26   12   13 1   
    27   12   49 1   
    28   12   50 1   
    29   13   14 1   
    30   13   51 1   
    31   13   76 1   
    32   14   15 2   
    33   14   16 1   
    34   15   52 1   
    35   16   53 1   
    36   16   54 1   
    37   16   77 1   
    38   17   18 1   
    39   17   55 1   
    40   17   56 1   
    41   18   57 1   
    42   18   58 1   
    43   20   21 1   
    44   20   59 1   
    45   20   60 1   
    46   21   22 ar  
    47   21   29 ar  
    48   22   23 ar  
    49   22   61 1   
    50   23   24 1   
    51   23   27 ar  
    52   24   25 2   
    53   24   26 1   
    54   25   62 1   
    55   26   63 1   
    56   26   64 1   
    57   26   78 1   
    58   27   28 ar  
    59   27   65 1   
    60   28   29 ar  
    61   28   66 1   
    62   29   67 1   
    63   30   31 ar  
    64   30   39 ar  
    65   31   32 ar  
    66   31   68 1   
    67   32   33 ar  
    68   32   69 1   
    69   33   34 ar  
    70   33   38 ar  
    71   34   35 ar  
    72   34   70 1   
    73   35   36 ar  
    74   35   71 1   
    75   36   37 ar  
    76   36   72 1   
    77   37   38 ar  
    78   37   73 1   
    79   38   39 ar  
    80   39   74 1   
@<TRIPOS>SUBSTRUCTURE
     1 730         1 TEMP              0 ****  ****    0 ROOT
