@<TRIPOS>MOLECULE
730
   78    80     1     0     0
SMALL
bcc


@<TRIPOS>ATOM
      1 S1         -0.8800   -0.3340    0.4700 s4        1 730      1.693300
      2 O39        -0.7280    0.9880    0.7650 o         1 730     -0.459400
      3 O38        -2.1150   -0.9100    0.4640 o         1 730     -0.459400
      4 N12        -1.1400    0.2300   -1.8990 n3        1 730     -0.981800
      5 C13        -2.4980    0.6440   -2.2640 c3        1 730      0.090500
      6 C24        -2.7950    0.3920   -3.7640 c         1 730      0.634100
      7 N26        -4.0880    0.1680   -4.2030 n         1 730     -0.470800
      8 C31        -4.3560    0.0360   -5.6200 c3        1 730      0.092500
      9 C30        -5.1320   -1.2260   -6.0140 c3        1 730     -0.096900
     10 C29        -6.1470   -1.6490   -4.9620 c3        1 730     -0.067700
     11 C32        -7.3690   -2.3490   -5.5470 c3        1 730     -0.107400
     12 C33        -8.2720   -1.4280   -6.3650 c3        1 730      0.107800
     13 N34        -9.4070   -2.2190   -6.9930 n4        1 730     -0.788000
     14 C35       -10.3230   -1.3800   -7.8480 c2        1 730      0.609100
     15 N37       -10.2970   -0.1270   -8.0600 n2        1 730     -0.582100
     16 N36       -11.4150   -2.1600   -8.5350 n4        1 730     -0.822600
     17 C28        -6.4800   -0.4940   -4.0340 c3        1 730     -0.096900
     18 C27        -5.2090   -0.0220   -3.3120 c3        1 730      0.092500
     19 O25        -1.8470    0.4080   -4.5770 o         1 730     -0.591100
     20 C14        -2.8160    2.1130   -1.9170 c3        1 730     -0.043100
     21 C15        -1.7130    3.1030   -2.0830 ca        1 730     -0.107300
     22 C20        -1.4360    3.9950   -1.0360 ca        1 730     -0.072000
     23 C19        -0.4470    4.9750   -1.1890 ca        1 730     -0.241900
     24 C21        -0.1380    5.8580   -0.0410 ce        1 730      0.576800
     25 N23         0.1720    5.5720    1.1660 n2        1 730     -0.689100
     26 N22        -0.2140    7.3210   -0.3780 n4        1 730     -0.819600
     27 C18         0.2780    5.0680   -2.3840 ca        1 730     -0.090000
     28 C17        -0.0010    4.1830   -3.4240 ca        1 730     -0.103000
     29 C16        -0.9910    3.2110   -3.2780 ca        1 730     -0.095000
     30 C2          0.3560   -1.2340    0.3950 ca        1 730     -0.659500
     31 C7          1.6740   -0.6460    0.4450 ca        1 730     -0.058000
     32 C6          2.8030   -1.4050    0.4690 ca        1 730     -0.095000
     33 C5          2.7320   -2.8320    0.4500 ca        1 730      0.075000
     34 C11         3.8840   -3.6420    0.5020 ca        1 730     -0.150000
     35 C10         3.7680   -5.0190    0.5000 ca        1 730     -0.002000
     36 C9          2.4930   -5.6360    0.4390 ca        1 730     -0.113000
     37 C8          1.3530   -4.8730    0.3830 ca        1 730     -0.072000
     38 C4          1.4390   -3.4460    0.3880 ca        1 730     -0.103000
     39 C3          0.2960   -2.6460    0.3550 ca        1 730      0.123000
     40 HN12       -0.8750   -0.5700   -2.4550 hn        1 730      0.403300
     41 H13        -3.1900   -0.0090   -1.6440 h1        1 730      0.101700
     42 H311       -4.9540    0.9400   -5.9380 h1        1 730      0.069950
     43 H312       -3.3810    0.0480   -6.1910 h1        1 730      0.069950
     44 H301       -5.6260   -1.0170   -6.9970 hc        1 730      0.058200
     45 H302       -4.4100   -2.0700   -6.1840 hc        1 730      0.058200
     46 H29        -5.6530   -2.4470   -4.3220 hc        1 730      0.100700
     47 H321       -6.9940   -3.1920   -6.1910 hc        1 730      0.085200
     48 H322       -7.9570   -2.7890   -4.6950 hc        1 730      0.085200
     49 H331       -8.7230   -0.6400   -5.6950 hx        1 730      0.121700
     50 H332       -7.6840   -0.9450   -7.1980 hx        1 730      0.121700
     51 HN34       -8.9850   -2.9710   -7.5620 hn        1 730      0.484300
     52 HN37       -9.6300    0.5160   -7.6720 hn        1 730      0.537400
     53 H361      -11.0170   -2.8580   -9.1840 hn        1 730      0.516800
     54 H362      -12.0070   -1.5040   -9.0970 hn        1 730      0.516800
     55 H281       -6.9250    0.3570   -4.6100 hc        1 730      0.058200
     56 H282       -7.2190   -0.8120   -3.2540 hc        1 730      0.058200
     57 H271       -5.4360    0.9480   -2.7820 h1        1 730      0.069950
     58 H272       -4.9420   -0.7920   -2.5300 h1        1 730      0.069950
     59 H141       -3.6830    2.4420   -2.5540 hc        1 730      0.080200
     60 H142       -3.1680    2.1330   -0.8480 hc        1 730      0.080200
     61 H20        -1.9960    3.9200   -0.0890 ha        1 730      0.156000
     62 HN23        0.2410    4.6120    1.4340 hn        1 730      0.487400
     63 H221       -1.1790    7.5480   -0.6400 hn        1 730      0.478800
     64 H222        0.0680    7.9120    0.4190 hn        1 730      0.478800
     65 H18         1.0830    5.8100   -2.5090 ha        1 730      0.153000
     66 H17         0.5650    4.2530   -4.3690 ha        1 730      0.180000
     67 H16        -1.2000    2.5220   -4.1170 ha        1 730      0.176000
     68 H7          1.7450    0.4560    0.4830 ha        1 730      0.156000
     69 H6          3.8010   -0.9320    0.5160 ha        1 730      0.182000
     70 H11         4.8790   -3.1650    0.5530 ha        1 730      0.178000
     71 H10         4.6710   -5.6550    0.5490 ha        1 730      0.185000
     72 H9          2.4330   -6.7390    0.4440 ha        1 730      0.182000
     73 H8          0.3590   -5.3480    0.3420 ha        1 730      0.158000
     74 H3         -0.6980   -3.1350    0.3170 ha        1 730      0.161000
     75 H122       -0.4900    0.9720   -2.1120 hn        1 730      0.403300
     76 H342       -9.9480   -2.6550   -6.2280 hn        1 730      0.484300
     77 H363      -12.0280   -2.6230   -7.8450 hn        1 730      0.516800
     78 H223        0.4070    7.5090   -1.1730 hn        1 730      0.478800
@<TRIPOS>BOND
     1    1    2 1   
     2    1    3 1   
     3    1   30 1   
     4    4    5 1   
     5    4   40 1   
     6    4   75 1   
     7    5    6 1   
     8    5   20 1   
     9    5   41 1   
    10    6    7 1   
    11    6   19 2   
    12    7    8 1   
    13    7   18 1   
    14    8    9 1   
    15    8   42 1   
    16    8   43 1   
    17    9   10 1   
    18    9   44 1   
    19    9   45 1   
    20   10   11 1   
    21   10   17 1   
    22   10   46 1   
    23   11   12 1   
    24   11   47 1   
    25   11   48 1   
    26   12   13 1   
    27   12   49 1   
    28   12   50 1   
    29   13   14 1   
    30   13   51 1   
    31   13   76 1   
    32   14   15 2   
    33   14   16 1   
    34   15   52 1   
    35   16   53 1   
    36   16   54 1   
    37   16   77 1   
    38   17   18 1   
    39   17   55 1   
    40   17   56 1   
    41   18   57 1   
    42   18   58 1   
    43   20   21 1   
    44   20   59 1   
    45   20   60 1   
    46   21   22 ar  
    47   21   29 ar  
    48   22   23 ar  
    49   22   61 1   
    50   23   24 1   
    51   23   27 ar  
    52   24   25 2   
    53   24   26 1   
    54   25   62 1   
    55   26   63 1   
    56   26   64 1   
    57   26   78 1   
    58   27   28 ar  
    59   27   65 1   
    60   28   29 ar  
    61   28   66 1   
    62   29   67 1   
    63   30   31 ar  
    64   30   39 ar  
    65   31   32 ar  
    66   31   68 1   
    67   32   33 ar  
    68   32   69 1   
    69   33   34 ar  
    70   33   38 ar  
    71   34   35 ar  
    72   34   70 1   
    73   35   36 ar  
    74   35   71 1   
    75   36   37 ar  
    76   36   72 1   
    77   37   38 ar  
    78   37   73 1   
    79   38   39 ar  
    80   39   74 1   
@<TRIPOS>SUBSTRUCTURE
     1 730         1 TEMP              0 ****  ****    0 ROOT
