@<TRIPOS>MOLECULE
730
   74    68     1     0     0
SMALL
bcc


@<TRIPOS>ATOM
      1 S1         -0.5410   -1.8370    1.5510 ss        1 730      2.858000
      2 O39        -0.3490   -2.8270    0.5340 o         1 730     -0.937500
      3 O38         0.7480   -1.8280    2.1820 o         1 730     -0.937500
      4 N12        -0.9000   -0.3470    0.8830 n2        1 730     -0.878000
      5 C13        -0.7230   -0.1310   -0.5280 c3        1 730      0.044000
      6 C24         0.2530    0.9990   -0.7460 c2        1 730      0.280000
      7 N26         1.5350    0.7420   -1.4020 n         1 730     -0.303000
      8 C31         2.4900    1.8060   -1.7310 c3        1 730     -0.044000
      9 C30         2.9260    1.7580   -3.1940 c3        1 730     -0.178000
     10 C29         3.4010    0.4010   -3.5960 c3        1 730     -0.100000
     11 C32         4.7420    0.1020   -2.8710 c3        1 730     -0.170000
     12 C33         5.9300    0.4320   -3.8210 c3        1 730     -0.050000
     13 N34         7.0840   -0.3470   -3.4380 n3        1 730     -0.333000
     14 C35         8.2960   -0.3290   -4.2760 c2        1 730      0.158000
     15 N37         8.5850   -1.3640   -5.0400 n1        1 730     -0.351000
     16 N36         9.1390    0.7860   -4.2610 n3        1 730     -0.318000
     17 C28         2.4090   -0.6650   -3.2450 c3        1 730     -0.178000
     18 C27         1.9780   -0.5960   -1.7870 c3        1 730     -0.044000
     19 O25        -0.0570    2.1270   -0.4520 o         1 730     -0.382000
     20 C14        -2.0720    0.2260   -1.1620 c3        1 730     -0.130000
     21 C15        -2.6090    1.5640   -0.5380 c2        1 730     -0.080000
     22 C20        -3.3820    1.5320    0.6190 c2        1 730     -0.093000
     23 C19        -3.9380    2.7100    1.1190 c1        1 730     -0.116000
     24 C21        -4.8220    2.6700    2.3940 c1        1 730      0.115000
     25 N23        -4.2850    2.9540    3.5910 n1        1 730     -0.304000
     26 N22        -6.2320    2.3220    2.2930 n3        1 730     -0.331000
     27 C18        -3.7200    3.9190    0.4580 c2        1 730     -0.114000
     28 C17        -2.9470    3.9500   -0.6990 c1        1 730     -0.135000
     29 C16        -2.3920    2.7740   -1.1980 c1        1 730     -0.119000
     30 C2         -1.8310   -2.3310    2.7120 c1        1 730     -0.836000
     31 C7         -2.3730   -3.5730    2.3610 c2        1 730     -0.046000
     32 C6         -3.3660   -4.1540    3.1590 c1        1 730     -0.130000
     33 C5         -3.8250   -3.4830    4.3260 c1        1 730      0.015000
     34 C11        -4.8990   -4.0290    5.0860 c2        1 730     -0.128000
     35 C10        -5.4100   -3.3270    6.1770 c1        1 730     -0.098000
     36 C9         -4.8680   -2.0870    6.5260 c1        1 730     -0.117500
     37 C8         -3.8110   -1.5480    5.7800 c1        1 730     -0.117500
     38 C4         -3.2900   -2.2590    4.6710 c1        1 730     -0.075000
     39 C3         -2.2810   -1.6690    3.8590 c2        1 730      0.030000
     40 HN12       -1.1910    0.3330    1.4150 hn        1 730      0.254000
     41 H13        -0.3670   -0.9640   -0.9510 h1        1 730      0.125000
     42 H311        3.2840    1.7100   -1.1580 h1        1 730      0.109000
     43 H312        2.0720    2.6710   -1.5530 h1        1 730      0.109000
     44 H301        2.1700    2.0100   -3.7600 hc        1 730      0.091750
     45 H302        3.6580    2.4070   -3.3310 hc        1 730      0.091750
     46 H29         3.5550    0.3890   -4.5840 hc        1 730      0.091000
     47 H321        4.8070    0.6600   -2.0570 hc        1 730      0.091000
     48 H322        4.7770   -0.8560   -2.6190 hc        1 730      0.091000
     49 H331        5.6800    0.2140   -4.7470 h1        1 730      0.081500
     50 H332        6.1440    1.3830   -3.7560 h1        1 730      0.081500
     51 HN34        7.0960   -0.7690   -2.6430 hn        1 730      0.190000
     52 HN37        8.0450   -2.0780   -5.0500 DU        1 730      0.148500
     53 H361       10.0070    0.7150   -4.5770 hn        1 730      0.189000
     54 H362        8.8220    1.5900   -3.9800 hn        1 730      0.189000
     55 H281        1.6250   -0.5640   -3.8110 hc        1 730      0.091750
     56 H282        2.8080   -1.5350   -3.4140 hc        1 730      0.091750
     57 H271        1.2530   -1.2180   -1.6460 h1        1 730      0.109000
     58 H272        2.7320   -0.8540   -1.2220 h1        1 730      0.109000
     59 H141       -1.9560    0.3410   -2.1470 hc        1 730      0.106000
     60 H142       -2.7160   -0.4960   -0.9910 hc        1 730      0.106000
     61 H20        -3.5670    0.6850    1.0540 ha        1 730      0.146000
     62 HN23       -3.3880    3.1740    3.6560 DU        1 730      0.148500
     63 H221       -6.6320    2.2520    1.4650 hn        1 730      0.192000
     64 H222       -6.7150    2.1220    3.0570 hn        1 730      0.192000
     65 H18        -4.1100    4.7440    0.8090 ha        1 730      0.138000
     66 H17        -2.7940    4.8000   -1.1640 ha        1 730      0.139000
     67 H16        -1.8560    2.7950   -1.9980 ha        1 730      0.171000
     68 H7         -2.0900   -4.0140    1.5360 ha        1 730      0.147000
     69 H6         -3.7480   -5.0300    2.9130 ha        1 730      0.143000
     70 H11        -5.2760   -4.8920    4.8440 ha        1 730      0.141000
     71 H10        -6.1590   -3.7080    6.7060 ha        1 730      0.139000
     72 H9         -5.2230   -1.5990    7.2850 ha        1 730      0.138500
     73 H8         -3.4290   -0.6720    6.0280 ha        1 730      0.138500
     74 H3         -1.9110   -0.7900    4.0960 ha        1 730      0.155000
@<TRIPOS>BOND
     1    1    2 1   
     2    1    3 1   
     3    4    5 1   
     4    4   40 1   
     5    5    6 1   
     6    5   20 1   
     7    5   41 1   
     8    6    7 1   
     9    6   19 1   
    10    7    8 1   
    11    7   18 1   
    12    8    9 1   
    13    8   42 1   
    14    8   43 1   
    15    9   10 1   
    16    9   44 1   
    17    9   45 1   
    18   10   11 1   
    19   10   17 1   
    20   10   46 1   
    21   11   12 1   
    22   11   47 1   
    23   11   48 1   
    24   12   13 1   
    25   12   49 1   
    26   12   50 1   
    27   13   14 1   
    28   13   51 1   
    29   14   15 1   
    30   14   16 1   
    31   16   53 1   
    32   16   54 1   
    33   17   18 1   
    34   17   55 1   
    35   17   56 1   
    36   18   57 1   
    37   18   58 1   
    38   20   21 1   
    39   20   59 1   
    40   20   60 1   
    41   21   22 1   
    42   21   29 1   
    43   22   23 1   
    44   22   61 1   
    45   23   27 1   
    46   24   25 1   
    47   24   26 1   
    48   26   63 1   
    49   26   64 1   
    50   27   28 1   
    51   27   65 1   
    52   28   66 1   
    53   29   67 1   
    54   30   31 1   
    55   30   39 1   
    56   31   32 1   
    57   31   68 1   
    58   32   69 1   
    59   33   34 1   
    60   33   38 1   
    61   34   35 1   
    62   34   70 1   
    63   35   71 1   
    64   36   37 1   
    65   36   72 1   
    66   37   73 1   
    67   38   39 1   
    68   39   74 1   
@<TRIPOS>SUBSTRUCTURE
     1 730         1 TEMP              0 ****  ****    0 ROOT
