@<TRIPOS>MOLECULE
732
   51    53     1     0     0
SMALL
bcc


@<TRIPOS>ATOM
      1 C1          0.2200   -0.4410   -0.1440 ca        1 732     -0.039000
      2 C2          1.5770   -0.0610   -0.0660 ca        1 732     -0.251500
      3 C3          2.2070   -0.0230    1.1980 ca        1 732     -0.039000
      4 C4          1.5000   -0.3550    2.3450 ca        1 732     -0.138000
      5 C5          0.1500   -0.7320    2.2540 ca        1 732      0.096400
      6 C6         -0.4860   -0.7720    1.0010 ca        1 732     -0.138000
      7 C7          2.3230    0.2870   -1.2290 cc        1 732      0.544200
      8 Cl8        -0.7060   -1.1340    3.6430 cl        1 732      0.009600
      9 C9          3.6690    0.7090   -1.4000 cd        1 732     -0.301300
     10 C10         3.8770    0.9210   -2.7700 cd        1 732      0.004700
     11 C11         2.6530    0.6240   -3.4310 cc        1 732      0.032200
     12 O12         1.6860    0.2280   -2.4650 os        1 732     -0.390800
     13 C13         2.3140    0.6740   -4.7830 c         1 732      0.503600
     14 O14         2.9950    0.9810   -5.7740 o         1 732     -0.593100
     15 N15         0.8650    0.2990   -5.1380 ny        1 732     -0.672800
     16 C16         0.7030    0.0020   -6.5950 c3        1 732      0.071500
     17 C17        -0.7040   -0.5320   -6.9540 c3        1 732     -0.090700
     18 C18         0.9830    1.2740   -7.4090 c         1 732      0.526100
     19 O19         0.4350    2.3490   -7.2310 o         1 732     -0.371100
     20 N20         2.0220    1.1630   -8.4840 ny        1 732     -0.653800
     21 C21         2.0010    2.3020   -9.4390 c3        1 732      0.080100
     22 C22        -0.8560   -1.9750   -6.4900 c3        1 732     -0.089400
     23 C23        -2.1880   -2.5300   -6.9630 c3        1 732     -0.079900
     24 C24        -3.3470   -1.6730   -6.5000 c3        1 732     -0.091400
     25 C25        -3.1690   -0.2230   -6.9020 c3        1 732     -0.079900
     26 C26        -1.8390    0.3220   -6.4100 c3        1 732     -0.089400
     27 H1         -0.2810   -0.4720   -1.1240 ha        1 732      0.146500
     28 H3          3.2670    0.2720    1.2780 ha        1 732      0.146500
     29 H4          2.0010   -0.3230    3.3290 ha        1 732      0.181000
     30 H6         -1.5470   -1.0670    0.9330 ha        1 732      0.181000
     31 H9          4.4010    0.8430   -0.6000 ha        1 732      0.213000
     32 H10         4.7980    1.2520   -3.2610 ha        1 732      0.207000
     33 HN15        0.5840   -0.5330   -4.6000 hn        1 732      0.481800
     34 H16         1.4630   -0.8050   -6.8400 hx        1 732      0.131700
     35 H17        -0.7610   -0.5200   -8.0820 hc        1 732      0.092700
     36 H21         2.8340    2.1620  -10.1830 hx        1 732      0.126700
     37 H21A        2.1480    3.2670   -8.8790 hx        1 732      0.126700
     38 H22        -0.8150   -2.0290   -5.3700 hc        1 732      0.049200
     39 H22A       -0.0230   -2.6050   -6.8980 hc        1 732      0.049200
     40 H23        -2.3080   -3.5730   -6.5670 hc        1 732      0.072700
     41 H23A       -2.1890   -2.5950   -8.0840 hc        1 732      0.072700
     42 H24        -3.4480   -1.7450   -5.3850 hc        1 732      0.070700
     43 H24A       -4.3000   -2.0660   -6.9450 hc        1 732      0.070700
     44 H25        -3.2270   -0.1270   -8.0180 hc        1 732      0.072700
     45 H25A       -3.9990    0.3950   -6.4680 hc        1 732      0.072700
     46 H26        -1.7200    1.3870   -6.7410 hc        1 732      0.049200
     47 H26A       -1.8440    0.3030   -5.2880 hc        1 732      0.049200
     48 H221        2.9440    1.1310   -8.0090 hn        1 732      0.483800
     49 H231        1.0120    2.3310   -9.9720 hx        1 732      0.126700
     50 H152        0.2440    1.0750   -4.8680 hn        1 732      0.481800
     51 H202        1.8910    0.2820   -8.9970 hn        1 732      0.483800
@<TRIPOS>BOND
     1    1    2 ar  
     2    1    6 ar  
     3    1   27 1   
     4    2    3 ar  
     5    2    7 1   
     6    3    4 ar  
     7    3   28 1   
     8    4    5 ar  
     9    4   29 1   
    10    5    6 ar  
    11    5    8 1   
    12    6   30 1   
    13    7    9 2   
    14    7   12 1   
    15    9   10 1   
    16    9   31 1   
    17   10   11 2   
    18   10   32 1   
    19   11   12 1   
    20   11   13 1   
    21   13   14 2   
    22   13   15 1   
    23   15   16 1   
    24   15   33 1   
    25   15   50 1   
    26   16   17 1   
    27   16   18 1   
    28   16   34 1   
    29   17   22 1   
    30   17   26 1   
    31   17   35 1   
    32   18   19 2   
    33   18   20 1   
    34   20   21 1   
    35   20   48 1   
    36   20   51 1   
    37   21   36 1   
    38   21   37 1   
    39   21   49 1   
    40   22   23 1   
    41   22   38 1   
    42   22   39 1   
    43   23   24 1   
    44   23   40 1   
    45   23   41 1   
    46   24   25 1   
    47   24   42 1   
    48   24   43 1   
    49   25   26 1   
    50   25   44 1   
    51   25   45 1   
    52   26   46 1   
    53   26   47 1   
@<TRIPOS>SUBSTRUCTURE
     1 732         1 TEMP              0 ****  ****    0 ROOT
