@<TRIPOS>MOLECULE
732
   49    44     1     0     0
SMALL
bcc


@<TRIPOS>ATOM
      1 C1         -4.6840   -2.8040    2.9830 c1        1 732     -0.113500
      2 C2         -4.1720   -2.6930    1.7000 c1        1 732     -0.035000
      3 C3         -4.8040   -3.3290    0.6430 c1        1 732     -0.087000
      4 C4         -5.9490   -4.0770    0.8700 c2        1 732     -0.128000
      5 C5         -6.4620   -4.1890    2.1530 c1        1 732     -0.048000
      6 C6         -5.8290   -3.5520    3.2090 c1        1 732     -0.113500
      7 C7         -3.0500   -1.9120    1.4670 c1        1 732     -0.030500
      8 CL8        -7.8880   -5.1480    2.4410 cl        1 732     -0.007000
      9 C9         -3.3110   -0.5700    1.2760 c1        1 732     -0.167000
     10 C10        -2.1250    0.0570    1.0140 c1        1 732     -0.167000
     11 C11        -1.1250   -0.8930    1.0410 c1        1 732     -0.030500
     12 O12        -1.7010   -2.1060    1.3210 os        1 732     -0.056000
     13 C13         0.3420   -0.6500    0.7540 c1        1 732      0.383000
     14 O14         1.1330   -1.5710    0.8100 o         1 732     -0.364000
     15 N15         0.7850    0.6440    0.3720 n3        1 732     -0.371000
     16 C16         2.1510    0.8320   -0.1410 c3        1 732      0.017000
     17 C17         2.1160    1.6490   -1.2460 c3        1 732     -0.105000
     18 C18         3.0360    1.4900    0.9640 c2        1 732      0.278000
     19 O19         2.9180    2.6740    1.2110 o         1 732     -0.376000
     20 N20         4.0120    0.7180    1.6440 n         1 732     -0.375000
     21 C21         4.6900    1.2610    2.7730 c3        1 732     -0.078000
     22 C22         1.1300    1.0880   -2.3750 c3        1 732     -0.151500
     23 C23         1.0900    1.9540   -3.6090 c3        1 732     -0.153000
     24 C24         2.1670    2.7680   -3.6800 c3        1 732     -0.156000
     25 C25         3.4230    2.4250   -3.3400 c3        1 732     -0.153000
     26 C26         3.4440    1.5510   -2.0970 c3        1 732     -0.151500
     27 H1         -4.2390   -2.3560    3.7270 ha        1 732      0.146000
     28 H3         -4.4430   -3.2510   -0.2600 DU        1 732      0.164333
     29 H4         -6.3950   -4.5250    0.1260 ha        1 732      0.154000
     30 H6         -6.1900   -3.6310    4.1130 ha        1 732      0.146000
     31 H9         -4.1890   -0.1440    1.3210 DU        1 732      0.164333
     32 H10        -2.0070    1.0100    0.8370 DU        1 732      0.164333
     33 HN15        0.2310    1.3620    0.4670 hn        1 732      0.238000
     34 H16         2.5290   -0.0360   -0.3890 h1        1 732      0.128000
     35 H17         1.9050    2.5750   -1.0110 hc        1 732      0.119000
     36 H21         5.4560    1.7930    2.4690 h1        1 732      0.082667
     37 H21A        4.0740    1.8330    3.2790 h1        1 732      0.082667
     38 H22         0.2270    1.0290   -2.0020 hc        1 732      0.082750
     39 H22A        1.4240    0.1900   -2.6300 hc        1 732      0.082750
     40 H23         1.0700    1.3790   -4.4020 hc        1 732      0.081500
     41 H23A        0.2770    2.5000   -3.5900 hc        1 732      0.081500
     42 H24         2.2140    3.0710   -4.6130 hc        1 732      0.080000
     43 H24A        1.9460    3.5550   -3.1370 hc        1 732      0.080000
     44 H25         3.8330    1.9350   -4.0820 hc        1 732      0.081500
     45 H25A        3.9410    3.2380   -3.1680 hc        1 732      0.081500
     46 H26         3.5750    0.6210   -2.3690 hc        1 732      0.082750
     47 H26A        4.1980    1.8230   -1.5350 hc        1 732      0.082750
     48 H221        4.2230   -0.1170    1.3440 hn        1 732      0.250000
     49 H231        5.0050    0.5310    3.3470 h1        1 732      0.082667
@<TRIPOS>BOND
     1    1    6 1   
     2    1   27 1   
     3    2    3 1   
     4    3    4 1   
     5    4    5 1   
     6    4   29 1   
     7    5    8 1   
     8    6   30 1   
     9    7    9 1   
    10    7   12 1   
    11    9   10 1   
    12   10   11 1   
    13   11   12 1   
    14   13   14 1   
    15   13   15 1   
    16   15   16 1   
    17   15   33 1   
    18   16   17 1   
    19   16   18 1   
    20   16   34 1   
    21   17   22 1   
    22   17   26 1   
    23   17   35 1   
    24   18   19 1   
    25   18   20 1   
    26   20   21 1   
    27   20   48 1   
    28   21   36 1   
    29   21   37 1   
    30   21   49 1   
    31   22   23 1   
    32   22   38 1   
    33   22   39 1   
    34   23   24 1   
    35   23   40 1   
    36   23   41 1   
    37   24   25 1   
    38   24   42 1   
    39   24   43 1   
    40   25   26 1   
    41   25   44 1   
    42   25   45 1   
    43   26   46 1   
    44   26   47 1   
@<TRIPOS>SUBSTRUCTURE
     1 732         1 TEMP              0 ****  ****    0 ROOT
