@<TRIPOS>MOLECULE
732
   51    53     1     0     0
SMALL
bcc


@<TRIPOS>ATOM
      1 C1          0.2330   -0.4310   -0.1430 ca        1 732     -0.039000
      2 C2          1.5880   -0.0460   -0.0680 ca        1 732     -0.251500
      3 C3          2.2220   -0.0040    1.1930 ca        1 732     -0.039000
      4 C4          1.5190   -0.3370    2.3420 ca        1 732     -0.138000
      5 C5          0.1700   -0.7190    2.2560 ca        1 732      0.096400
      6 C6         -0.4700   -0.7630    1.0040 ca        1 732     -0.138000
      7 C7          2.3300    0.3030   -1.2340 cc        1 732      0.544200
      8 CL8        -0.6820   -1.1220    3.6470 cl        1 732      0.009600
      9 C9          3.6750    0.7300   -1.4090 cd        1 732     -0.301300
     10 C10         3.8790    0.9410   -2.7800 cd        1 732      0.004700
     11 C11         2.6540    0.6390   -3.4370 cc        1 732      0.032200
     12 O12         1.6910    0.2410   -2.4690 os        1 732     -0.390800
     13 C13         2.3110    0.6860   -4.7880 c         1 732      0.503600
     14 O14         2.9880    0.9940   -5.7810 o         1 732     -0.593100
     15 N15         0.8630    0.3050   -5.1400 n4        1 732     -0.672800
     16 C16         0.6970    0.0060   -6.5960 c3        1 732      0.071500
     17 C17        -0.7080   -0.5320   -6.9510 c3        1 732     -0.090700
     18 C18         0.9710    1.2780   -7.4120 c         1 732      0.526100
     19 O19         0.4200    2.3530   -7.2340 o         1 732     -0.371100
     20 N20         2.0080    1.1700   -8.4900 n4        1 732     -0.653800
     21 C21         1.9810    2.3080   -9.4460 c3        1 732      0.080100
     22 C22        -0.8540   -1.9760   -6.4840 c3        1 732     -0.089400
     23 C23        -2.1860   -2.5350   -6.9540 c3        1 732     -0.079900
     24 C24        -3.3460   -1.6810   -6.4880 c3        1 732     -0.091400
     25 C25        -3.1740   -0.2320   -6.8920 c3        1 732     -0.079900
     26 C26        -1.8450    0.3190   -6.4040 c3        1 732     -0.089400
     27 H1         -0.2700   -0.4650   -1.1220 ha        1 732      0.146500
     28 H3          3.2800    0.2950    1.2710 ha        1 732      0.146500
     29 H4          2.0210   -0.3020    3.3250 ha        1 732      0.181000
     30 H6         -1.5300   -1.0630    0.9390 ha        1 732      0.181000
     31 H9          4.4080    0.8670   -0.6110 ha        1 732      0.213000
     32 H10         4.7970    1.2740   -3.2730 ha        1 732      0.207000
     33 HN15        0.2400    1.0790   -4.8690 hn        1 732      0.481800
     34 H16         1.4600   -0.7980   -6.8420 hx        1 732      0.131700
     35 H17        -0.7680   -0.5220   -8.0790 hc        1 732      0.092700
     36 H21         2.8120    2.1700  -10.1910 hx        1 732      0.126700
     37 H21A        0.9900    2.3330   -9.9760 hx        1 732      0.126700
     38 H22        -0.8100   -2.0280   -5.3650 hc        1 732      0.049200
     39 H22A       -0.0200   -2.6030   -6.8940 hc        1 732      0.049200
     40 H23        -2.3010   -3.5790   -6.5570 hc        1 732      0.072700
     41 H23A       -2.1890   -2.6020   -8.0740 hc        1 732      0.072700
     42 H24        -3.4440   -1.7530   -5.3730 hc        1 732      0.070700
     43 H24A       -4.2990   -2.0790   -6.9310 hc        1 732      0.070700
     44 H25        -4.0050    0.3840   -6.4570 hc        1 732      0.072700
     45 H25A       -3.2350   -0.1370   -8.0080 hc        1 732      0.072700
     46 H26        -1.7300    1.3840   -6.7370 hc        1 732      0.049200
     47 H26A       -1.8460    0.3000   -5.2820 hc        1 732      0.049200
     48 H221        1.8790    0.2880   -9.0010 hn        1 732      0.483800
     49 H231        2.1250    3.2740   -8.8870 hx        1 732      0.126700
     50 H152        0.5860   -0.5270   -4.5990 hn        1 732      0.481800
     51 H202        2.9320    1.1420   -8.0170 hn        1 732      0.483800
@<TRIPOS>BOND
     1    1    2 ar  
     2    1    6 ar  
     3    1   27 1   
     4    2    3 ar  
     5    2    7 1   
     6    3    4 ar  
     7    3   28 1   
     8    4    5 ar  
     9    4   29 1   
    10    5    6 ar  
    11    5    8 1   
    12    6   30 1   
    13    7    9 2   
    14    7   12 1   
    15    9   10 1   
    16    9   31 1   
    17   10   11 2   
    18   10   32 1   
    19   11   12 1   
    20   11   13 1   
    21   13   14 2   
    22   13   15 1   
    23   15   16 1   
    24   15   33 1   
    25   15   50 1   
    26   16   17 1   
    27   16   18 1   
    28   16   34 1   
    29   17   22 1   
    30   17   26 1   
    31   17   35 1   
    32   18   19 2   
    33   18   20 1   
    34   20   21 1   
    35   20   48 1   
    36   20   51 1   
    37   21   36 1   
    38   21   37 1   
    39   21   49 1   
    40   22   23 1   
    41   22   38 1   
    42   22   39 1   
    43   23   24 1   
    44   23   40 1   
    45   23   41 1   
    46   24   25 1   
    47   24   42 1   
    48   24   43 1   
    49   25   26 1   
    50   25   44 1   
    51   25   45 1   
    52   26   46 1   
    53   26   47 1   
@<TRIPOS>SUBSTRUCTURE
     1 732         1 TEMP              0 ****  ****    0 ROOT
