@<TRIPOS>MOLECULE
732
   49    51     1     0     0
SMALL
bcc


@<TRIPOS>ATOM
      1 C1         -3.0490   -0.0130    1.0560 ca        1 732     -0.094000
      2 C2         -3.2960   -0.9000   -0.0030 ca        1 732     -0.138500
      3 C3         -4.6200   -1.2230   -0.3390 ca        1 732     -0.094000
      4 C4         -5.6810   -0.6680    0.3710 ca        1 732     -0.127000
      5 C5         -5.4230    0.2150    1.4240 ca        1 732      0.028400
      6 C6         -4.1070    0.5440    1.7680 ca        1 732     -0.127000
      7 C7         -2.2090   -1.4880   -0.7470 cc        1 732      0.338200
      8 CL8        -6.7160    0.8930    2.2920 cl        1 732     -0.085400
      9 C9         -2.1550   -2.4610   -1.7380 cd        1 732     -0.263300
     10 C10        -0.7670   -2.6280   -2.0850 cd        1 732     -0.168300
     11 C11        -0.0500   -1.7500   -1.2910 cc        1 732      0.184200
     12 O12        -0.9160   -1.0320   -0.4550 os        1 732     -0.356800
     13 C13         1.3990   -1.4970   -1.2100 c         1 732      0.597600
     14 O14         2.1940   -2.1980   -1.8700 o         1 732     -0.604100
     15 N15         1.8280   -0.4370   -0.4310 n         1 732     -0.536900
     16 C16         3.2250   -0.2120   -0.1660 c3        1 732      0.039700
     17 C17         3.6820    1.2460   -0.3910 c3        1 732     -0.063700
     18 C18         3.5750   -0.5820    1.3020 c         1 732      0.633100
     19 O19         2.7910   -0.3280    2.2380 o         1 732     -0.615100
     20 N20         4.8010   -1.1670    1.5210 n         1 732     -0.566900
     21 C21         5.2400   -1.5860    2.8140 c3        1 732      0.076300
     22 C22         3.7110    1.5830   -1.8740 c3        1 732     -0.078400
     23 C23         4.2530    2.9820   -2.0910 c3        1 732     -0.075900
     24 C24         3.4630    4.0130   -1.3110 c3        1 732     -0.078400
     25 C25         3.3910    3.6590    0.1610 c3        1 732     -0.075900
     26 C26         2.8340    2.2630    0.3590 c3        1 732     -0.078400
     27 H1         -2.0110    0.2410    1.3230 ha        1 732      0.148500
     28 H3         -4.8220   -1.9180   -1.1680 ha        1 732      0.148500
     29 H4         -6.7170   -0.9260    0.1030 ha        1 732      0.152000
     30 H6         -3.9060    1.2390    2.5980 ha        1 732      0.152000
     31 H9         -2.9890   -3.0020   -2.1750 ha        1 732      0.168000
     32 H10        -0.3610   -3.3140   -2.8260 ha        1 732      0.180000
     33 HN15        1.1840   -0.0050    0.1950 hn        1 732      0.335500
     34 H16         3.8160   -0.8670   -0.8780 h1        1 732      0.096700
     35 H17         4.7370    1.3080    0.0040 hc        1 732      0.055700
     36 H21         4.5300   -1.2180    3.6020 h1        1 732      0.046033
     37 H21A        5.2930   -2.7080    2.8680 h1        1 732      0.046033
     38 H22         4.3520    0.8420   -2.4190 hc        1 732      0.051200
     39 H22A        2.6750    1.5100   -2.2980 hc        1 732      0.051200
     40 H23         5.3290    3.0180   -1.7760 hc        1 732      0.040700
     41 H23A        4.2140    3.2280   -3.1840 hc        1 732      0.040700
     42 H24         3.9410    5.0200   -1.4320 hc        1 732      0.040700
     43 H24A        2.4240    4.0800   -1.7280 hc        1 732      0.040700
     44 H25         4.4150    3.7230    0.6140 hc        1 732      0.040700
     45 H25A        2.7400    4.3980    0.6950 hc        1 732      0.040700
     46 H26         1.7780    2.2380   -0.0180 hc        1 732      0.051200
     47 H26A        2.8130    2.0030    1.4500 hc        1 732      0.051200
     48 H221        5.3620   -1.4200    0.7430 hn        1 732      0.313500
     49 H231        6.2630   -1.1690    3.0180 h1        1 732      0.046033
@<TRIPOS>BOND
     1    1    2 ar  
     2    1    6 ar  
     3    1   27 1   
     4    2    3 ar  
     5    2    7 1   
     6    3    4 ar  
     7    3   28 1   
     8    4    5 ar  
     9    4   29 1   
    10    5    6 ar  
    11    5    8 1   
    12    6   30 1   
    13    7    9 2   
    14    7   12 1   
    15    9   10 1   
    16    9   31 1   
    17   10   11 2   
    18   10   32 1   
    19   11   12 1   
    20   11   13 1   
    21   13   14 2   
    22   13   15 1   
    23   15   16 1   
    24   15   33 1   
    25   16   17 1   
    26   16   18 1   
    27   16   34 1   
    28   17   22 1   
    29   17   26 1   
    30   17   35 1   
    31   18   19 2   
    32   18   20 1   
    33   20   21 1   
    34   20   48 1   
    35   21   36 1   
    36   21   37 1   
    37   21   49 1   
    38   22   23 1   
    39   22   38 1   
    40   22   39 1   
    41   23   24 1   
    42   23   40 1   
    43   23   41 1   
    44   24   25 1   
    45   24   42 1   
    46   24   43 1   
    47   25   26 1   
    48   25   44 1   
    49   25   45 1   
    50   26   46 1   
    51   26   47 1   
@<TRIPOS>SUBSTRUCTURE
     1 732         1 TEMP              0 ****  ****    0 ROOT
