@<TRIPOS>MOLECULE
733
   40    42     1     0     0
SMALL
bcc


@<TRIPOS>ATOM
      1 C01         0.2510    0.1870   -0.3220 c3        1 733     -0.170400
      2 C02         1.7430    0.0930   -0.2730 ca        1 733      0.550600
      3 C03         2.3510    0.0900    0.9990 ca        1 733     -0.376300
      4 C04         3.7530    0.0010    1.1190 ca        1 733      0.293600
      5 N01         4.3640   -0.0180    2.3350 nu        1 733     -0.731600
      6 C05         3.6280    0.0910    3.5750 c3        1 733      0.252100
      7 C06         4.5260    0.0370    4.7780 ca        1 733     -0.117300
      8 C07         4.5300   -1.0730    5.6340 ca        1 733      0.040400
      9 Cl1         3.5800   -2.4440    5.3130 cl        1 733     -0.060400
     10 C08         5.3240   -1.0820    6.7870 ca        1 733     -0.111000
     11 C09         6.1300    0.0090    7.0870 ca        1 733     -0.087000
     12 C10         6.1540    1.1210    6.2360 ca        1 733      0.017400
     13 Cl2         7.1520    2.4290    6.6230 cl        1 733     -0.032400
     14 C11         5.3560    1.1320    5.0820 ca        1 733      0.025400
     15 Cl3         5.3900    2.4790    4.0480 cl        1 733     -0.059400
     16 C12         4.5290   -0.0880   -0.1150 ca        1 733     -0.202300
     17 C13         5.9310   -0.1820   -0.1180 ca        1 733     -0.051000
     18 C14         6.6370   -0.2910   -1.3170 ca        1 733      0.085900
     19 F           7.9870   -0.3810   -1.3100 f         1 733     -0.106900
     20 C15         5.9470   -0.3180   -2.5490 ca        1 733     -0.024000
     21 C16         4.5620   -0.2060   -2.5750 ca        1 733     -0.268900
     22 C17         3.9520   -0.2910   -3.9020 c         1 733      0.581700
     23 N02         2.5900    0.3170   -4.1040 nz        1 733     -0.763400
     24 O1          4.4310   -0.7950   -4.9130 o         1 733     -0.444100
     25 C1          3.8060   -0.0840   -1.3550 ca        1 733      0.499600
     26 N1          2.4440    0.0150   -1.4170 nb        1 733     -0.858000
     27 H1         -0.0780    1.1100    0.2200 hc        1 733      0.070700
     28 H2         -0.1470    0.2250   -1.3650 hc        1 733      0.070700
     29 H3         -0.1880   -0.7050    0.1930 hc        1 733      0.070700
     30 H4          1.7050    0.1590    1.8860 ha        1 733      0.168000
     31 H5          5.3560   -0.0290    2.3960 hn        1 733      0.453800
     32 H6          3.0580    1.0690    3.5880 h1        1 733      0.078700
     33 H7          2.8670   -0.7440    3.6170 h1        1 733      0.078700
     34 H8          5.3120   -1.9560    7.4600 ha        1 733      0.171000
     35 H9          6.7520   -0.0000    7.9980 ha        1 733      0.172000
     36 H10         6.5220   -0.1760    0.8130 ha        1 733      0.166000
     37 H11         6.5230   -0.4350   -3.4860 ha        1 733      0.186000
     38 H12         2.1570   -0.0540   -4.9540 hn        1 733      0.476467
     39 H13         1.9990    0.1060   -3.2620 hn        1 733      0.476467
     40 H023        2.6820    1.3320   -4.1870 hn        1 733      0.476467
@<TRIPOS>BOND
     1    1    2 1   
     2    1   27 1   
     3    1   28 1   
     4    1   29 1   
     5    2    3 ar  
     6    2   26 ar  
     7    3    4 ar  
     8    3   30 1   
     9    4    5 1   
    10    4   16 ar  
    11    5    6 1   
    12    5   31 1   
    13    6    7 1   
    14    6   32 1   
    15    6   33 1   
    16    7    8 ar  
    17    7   14 ar  
    18    8    9 1   
    19    8   10 ar  
    20   10   11 ar  
    21   10   34 1   
    22   11   12 ar  
    23   11   35 1   
    24   12   13 1   
    25   12   14 ar  
    26   14   15 1   
    27   16   17 ar  
    28   16   25 ar  
    29   17   18 ar  
    30   17   36 1   
    31   18   19 1   
    32   18   20 ar  
    33   20   21 ar  
    34   20   37 1   
    35   21   22 1   
    36   21   25 ar  
    37   22   23 1   
    38   22   24 2   
    39   23   38 1   
    40   23   39 1   
    41   23   40 1   
    42   25   26 ar  
@<TRIPOS>SUBSTRUCTURE
     1 733         1 TEMP              0 ****  ****    0 ROOT
