@<TRIPOS>MOLECULE
733
   40    42     1     0     0
SMALL
bcc


@<TRIPOS>ATOM
      1 C01         0.2410    0.1960   -0.2900 c3        1 733     -0.169400
      2 C02         1.7340    0.0940   -0.2540 ca        1 733      0.545600
      3 C03         2.3480    0.0910    1.0150 ca        1 733     -0.375300
      4 C04         3.7500   -0.0070    1.1260 ca        1 733      0.291600
      5 N01         4.3700   -0.0250    2.3380 nh        1 733     -0.733600
      6 C05         3.6430    0.0910    3.5820 c3        1 733      0.252100
      7 C06         4.5480    0.0370    4.7790 ca        1 733     -0.116300
      8 C07         4.5510   -1.0700    5.6390 ca        1 733      0.040400
      9 CL1         3.5910   -2.4370    5.3300 cl        1 733     -0.060400
     10 C08         5.3530   -1.0790    6.7870 ca        1 733     -0.111000
     11 C09         6.1670    0.0080    7.0780 ca        1 733     -0.087000
     12 C10         6.1920    1.1170    6.2220 ca        1 733      0.017400
     13 CL2         7.2000    2.4210    6.5980 cl        1 733     -0.032400
     14 C11         5.3860    1.1280    5.0740 ca        1 733      0.025400
     15 CL3         5.4210    2.4710    4.0350 cl        1 733     -0.059400
     16 C12         4.5160   -0.1040   -0.1140 ca        1 733     -0.206300
     17 C13         5.9160   -0.2150   -0.1230 ca        1 733     -0.045000
     18 C14         6.6160   -0.3300   -1.3260 ca        1 733      0.082900
     19 F           7.9650   -0.4370   -1.3240 f         1 733     -0.107900
     20 C15         5.9200   -0.3430   -2.5520 ca        1 733     -0.023000
     21 C16         4.5340   -0.2150   -2.5740 ca        1 733     -0.270900
     22 C17         3.9380   -0.2730   -3.9060 c         1 733      0.583700
     23 N02         2.5640    0.3110   -4.1270 n4        1 733     -0.739400
     24 O1          4.4390   -0.7250   -4.9320 o         1 733     -0.447100
     25 C1          3.7840   -0.0930   -1.3510 ca        1 733      0.499600
     26 N1          2.4230    0.0120   -1.4040 nb        1 733     -0.851000
     27 H1         -0.1970   -0.6850    0.2450 hc        1 733      0.069367
     28 H2         -0.0770    1.1280    0.2410 hc        1 733      0.069367
     29 H3         -0.1680    0.2180   -1.3280 hc        1 733      0.069367
     30 H4          1.7090    0.1650    1.9070 ha        1 733      0.167000
     31 H5          5.3620   -0.0380    2.3920 hn        1 733      0.452800
     32 H6          3.0780    1.0730    3.5950 h1        1 733      0.078200
     33 H7          2.8770   -0.7390    3.6320 h1        1 733      0.078200
     34 H8          5.3400   -1.9510    7.4630 ha        1 733      0.171000
     35 H9          6.7950   -0.0010    7.9850 ha        1 733      0.172000
     36 H10         6.5120   -0.2190    0.8050 ha        1 733      0.166000
     37 H11         6.4910   -0.4600   -3.4930 ha        1 733      0.186000
     38 H12         2.3470    0.3230   -5.1290 hn        1 733      0.472467
     39 H13         2.5260    1.2620   -3.7480 hn        1 733      0.472467
     40 H023        1.8660   -0.2600   -3.6290 hn        1 733      0.472467
@<TRIPOS>BOND
     1    1    2 1   
     2    1   27 1   
     3    1   28 1   
     4    1   29 1   
     5    2    3 ar  
     6    2   26 ar  
     7    3    4 ar  
     8    3   30 1   
     9    4    5 1   
    10    4   16 ar  
    11    5    6 1   
    12    5   31 1   
    13    6    7 1   
    14    6   32 1   
    15    6   33 1   
    16    7    8 ar  
    17    7   14 ar  
    18    8    9 1   
    19    8   10 ar  
    20   10   11 ar  
    21   10   34 1   
    22   11   12 ar  
    23   11   35 1   
    24   12   13 1   
    25   12   14 ar  
    26   14   15 1   
    27   16   17 ar  
    28   16   25 ar  
    29   17   18 ar  
    30   17   36 1   
    31   18   19 1   
    32   18   20 ar  
    33   20   21 ar  
    34   20   37 1   
    35   21   22 1   
    36   21   25 ar  
    37   22   23 1   
    38   22   24 2   
    39   23   38 1   
    40   23   39 1   
    41   23   40 1   
    42   25   26 ar  
@<TRIPOS>SUBSTRUCTURE
     1 733         1 TEMP              0 ****  ****    0 ROOT
