@<TRIPOS>MOLECULE
734
   40    43     1     0     0
SMALL
bcc


@<TRIPOS>ATOM
      1 CAA         1.1720   -0.9510    0.6630 ca        1 734     -0.074000
      2 CAB        -2.8900    1.8580    5.3060 ca        1 734      0.122800
      3 CAC        -2.7670    0.4950    5.0430 ca        1 734     -0.209300
      4 CAD        -3.1490   -0.4430    6.0290 ca        1 734     -0.075000
      5 CAE        -3.6680   -0.0250    7.2350 ca        1 734      0.011400
      6 CAF        -2.5220   -1.3690    3.3880 cc        1 734      0.140000
      7 CAG        -3.8350    1.3590    7.5230 ca        1 734     -0.088300
      8 CAH        -4.3840    1.8440    8.7480 ca        1 734     -0.079000
      9 CAI        -4.5090    3.1950    8.9490 ca        1 734     -0.210300
     10 CAJ        -4.0800    4.0870    7.9140 ca        1 734      0.439200
     11 CAK         0.7290   -0.0950   -0.3390 ca        1 734     -0.192300
     12 CAL        -3.4380    2.3260    6.5510 ca        1 734      0.337600
     13 CAM        -2.2910    0.0600    3.6870 c3        1 734      0.215500
     14 CAN        -0.2250    0.8950   -0.0090 ca        1 734      0.428200
     15 CAO        -0.2760    0.2140    2.1930 ca        1 734      0.460200
     16 CAP         0.6670   -0.8100    1.9630 ca        1 734     -0.199300
     17 CAQ        -3.4400   -2.0120    2.5790 cd        1 734     -0.158300
     18 CAR        -3.1990   -3.4300    2.7260 cd        1 734     -0.258300
     19 CAS        -2.1450   -3.5670    3.6070 cc        1 734      0.285600
     20 NAT        -0.8090    0.4110    3.5560 n4        1 734     -0.751700
     21 NAU        -0.7280    1.0610    1.2210 nb        1 734     -0.647000
     22 NAV        -3.5670    3.6850    6.7660 nb        1 734     -0.679000
     23 OAW        -1.7040   -2.3150    4.0350 os        1 734     -0.391800
     24 OAX        -2.4320    2.7060    4.3310 oh        1 734     -0.532100
     25 CLAY       -4.1120   -1.1940    8.3810 cl        1 734     -0.046400
     26 HAA         1.9140   -1.7380    0.4490 ha        1 734      0.175000
     27 HAD        -3.0350   -1.5200    5.8160 ha        1 734      0.171000
     28 HAH        -4.7040    1.1230    9.5190 ha        1 734      0.170000
     29 HAI        -4.9290    3.6080    9.8780 ha        1 734      0.169000
     30 HAJ        -4.1710    5.1820    8.0540 h4        1 734      0.046100
     31 HAK         1.1040   -0.1760   -1.3710 ha        1 734      0.180000
     32 HAM        -2.8330    0.6820    2.9010 hx        1 734      0.143700
     33 HAN        -0.6100    1.5990   -0.7740 h4        1 734      0.060100
     34 HAP         1.0010   -1.4880    2.7640 ha        1 734      0.168000
     35 HAQ        -4.2080   -1.5590    1.9530 ha        1 734      0.183000
     36 HAR        -3.7580   -4.2220    2.2300 ha        1 734      0.189000
     37 HAS        -1.5960   -4.4050    4.0340 h4        1 734      0.074100
     38 HNAT       -0.2740   -0.1780    4.2040 hn        1 734      0.468800
     39 HOAX       -2.6930    3.6210    4.5340 ho        1 734      0.483000
     40 HAT2       -0.7040    1.4030    3.8250 hn        1 734      0.468800
@<TRIPOS>BOND
     1    1   11 ar  
     2    1   16 ar  
     3    1   26 1   
     4    2    3 ar  
     5    2   12 ar  
     6    2   24 1   
     7    3    4 ar  
     8    3   13 1   
     9    4    5 ar  
    10    4   27 1   
    11    5    7 ar  
    12    5   25 1   
    13    6   13 1   
    14    6   17 2   
    15    6   23 1   
    16    7    8 ar  
    17    7   12 ar  
    18    8    9 ar  
    19    8   28 1   
    20    9   10 ar  
    21    9   29 1   
    22   10   22 ar  
    23   10   30 1   
    24   11   14 ar  
    25   11   31 1   
    26   12   22 ar  
    27   13   20 1   
    28   13   32 1   
    29   14   21 ar  
    30   14   33 1   
    31   15   16 ar  
    32   15   20 1   
    33   15   21 ar  
    34   16   34 1   
    35   17   18 1   
    36   17   35 1   
    37   18   19 2   
    38   18   36 1   
    39   19   23 1   
    40   19   37 1   
    41   20   38 1   
    42   20   40 1   
    43   24   39 1   
@<TRIPOS>SUBSTRUCTURE
     1 734         1 TEMP              0 ****  ****    0 ROOT
