@<TRIPOS>MOLECULE
734
   39    42     1     0     0
SMALL
bcc


@<TRIPOS>ATOM
      1 CAA         4.1280   -0.4400    2.7550 ca        1 734     -0.074000
      2 CAB        -0.9900    0.5950    1.0930 ca        1 734      0.111800
      3 CAC        -0.3500    0.2950   -0.1040 ca        1 734     -0.110300
      4 CAD        -1.0860   -0.2470   -1.1770 ca        1 734     -0.063000
      5 CAE        -2.4430   -0.4660   -1.0650 ca        1 734     -0.007600
      6 CAF         1.4270    1.2970   -1.4890 cc        1 734      0.204000
      7 CAG        -3.1360   -0.1560    0.1350 ca        1 734     -0.102300
      8 CAH        -4.5390   -0.3600    0.3030 ca        1 734     -0.077000
      9 CAI        -5.1360   -0.0370    1.4930 ca        1 734     -0.239300
     10 CAJ        -4.3250    0.5020    2.5410 ca        1 734      0.418200
     11 CAK         5.2680   -1.0480    2.2290 ca        1 734     -0.280300
     12 CAL        -2.4090    0.3860    1.2390 ca        1 734      0.338600
     13 CAM         1.1430    0.5160   -0.2450 c3        1 734      0.228500
     14 CAN         5.2170   -1.5060    0.9010 ca        1 734      0.423200
     15 CAO         3.0240   -0.7940    0.6220 ca        1 734      0.614200
     16 CAP         2.9930   -0.3060    1.9620 ca        1 734     -0.269300
     17 CAQ         1.6750    2.6390   -1.7060 cd        1 734     -0.235300
     18 CAR         1.8910    2.7970   -3.1280 cd        1 734     -0.263300
     19 CAS         1.7660    1.5440   -3.6890 cc        1 734      0.247600
     20 NAT         1.8430   -0.7590   -0.1630 nh        1 734     -0.814900
     21 NAU         4.1480   -1.3870    0.1010 nb        1 734     -0.713000
     22 NAV        -3.0260    0.7080    2.4340 nb        1 734     -0.679000
     23 OAW         1.4780    0.5990   -2.7040 os        1 734     -0.369800
     24 OAX        -0.2140    1.0970    2.1080 oh        1 734     -0.503100
     25 CLAY       -3.2830   -1.1190   -2.3940 cl        1 734     -0.090400
     26 HAA         4.1210   -0.0720    3.7910 ha        1 734      0.136000
     27 HAD        -0.5490   -0.4870   -2.1120 ha        1 734      0.166000
     28 HAH        -5.1240   -0.7770   -0.5320 ha        1 734      0.155000
     29 HAI        -6.2120   -0.1790    1.6620 ha        1 734      0.150000
     30 HAJ        -4.7850    0.7700    3.5110 h4        1 734      0.026100
     31 HAK         6.1790   -1.1710    2.8270 ha        1 734      0.142000
     32 HAM         1.4760    1.1850    0.6130 h1        1 734      0.102700
     33 HAN         6.0930   -1.9960    0.4390 h4        1 734      0.019100
     34 HAP         2.0760    0.1480    2.3700 ha        1 734      0.159000
     35 HAQ         1.7060    3.4340   -0.9670 ha        1 734      0.165000
     36 HAR         2.1110    3.7330   -3.6340 ha        1 734      0.163000
     37 HAS         1.8430    1.1330   -4.6920 h4        1 734      0.055100
     38 HNAT        1.9360   -1.1980   -1.0600 hn        1 734      0.415800
     39 HOAX       -0.7700    1.2730    2.8820 ho        1 734      0.452000
@<TRIPOS>BOND
     1    1   11 ar  
     2    1   16 ar  
     3    1   26 1   
     4    2    3 ar  
     5    2   12 ar  
     6    2   24 1   
     7    3    4 ar  
     8    3   13 1   
     9    4    5 ar  
    10    4   27 1   
    11    5    7 ar  
    12    5   25 1   
    13    6   13 1   
    14    6   17 2   
    15    6   23 1   
    16    7    8 ar  
    17    7   12 ar  
    18    8    9 ar  
    19    8   28 1   
    20    9   10 ar  
    21    9   29 1   
    22   10   22 ar  
    23   10   30 1   
    24   11   14 ar  
    25   11   31 1   
    26   12   22 ar  
    27   13   20 1   
    28   13   32 1   
    29   14   21 ar  
    30   14   33 1   
    31   15   16 ar  
    32   15   20 1   
    33   15   21 ar  
    34   16   34 1   
    35   17   18 1   
    36   17   35 1   
    37   18   19 2   
    38   18   36 1   
    39   19   23 1   
    40   19   37 1   
    41   20   38 1   
    42   24   39 1   
@<TRIPOS>SUBSTRUCTURE
     1 734         1 TEMP              0 ****  ****    0 ROOT
