@<TRIPOS>MOLECULE
734
   39    30     1     0     0
SMALL
bcc


@<TRIPOS>ATOM
      1 CAA         4.5440    0.0520   -2.9970 c1        1 734     -0.128500
      2 CAB        -1.1550    1.2210    0.6390 c1        1 734      0.142000
      3 CAC        -0.2480    0.1580    0.7050 c1        1 734     -0.115000
      4 CAD        -0.1420   -0.5900    1.8600 c1        1 734     -0.071000
      5 CAE        -0.9370   -0.2880    2.9580 c1        1 734     -0.088000
      6 CAF        -0.2340   -1.6780   -0.8730 c1        1 734     -0.084500
      7 CAG        -1.8490    0.7810    2.8930 c2        1 734     -0.036000
      8 CAH        -2.6510    1.0840    3.9840 c1        1 734     -0.079000
      9 CAI        -3.5530    2.1350    3.9080 c1        1 734     -0.128500
     10 CAJ        -3.6530    2.8820    2.7420 c1        1 734     -0.128500
     11 CAK         4.0000    0.9600   -3.8780 c1        1 734     -0.128500
     12 CAL        -1.9530    1.5260    1.7380 c1        1 734     -0.058000
     13 CAM         0.2730   -0.3370   -0.6270 c2        1 734      0.124000
     14 CAN         2.7060    1.4090   -3.6970 c1        1 734     -0.128500
     15 CAO         2.4930    0.0480   -1.7580 c1        1 734      0.113000
     16 CAP         3.8020   -0.4060   -1.9410 c1        1 734     -0.128500
     17 CAQ        -1.3860   -2.1350   -1.4800 c1        1 734     -0.180000
     18 CAR        -1.4790   -3.4800   -1.2510 c1        1 734     -0.180000
     19 CAS        -0.3710   -3.8640   -0.4930 c1        1 734     -0.084500
     20 NAT         1.7450   -0.3650   -0.6010 n3        1 734     -0.259000
     21 NAU         1.9560    0.9470   -2.6310 n1        1 734     -0.187000
     22 NAV        -2.8610    2.5820    1.6660 n1        1 734     -0.150000
     23 OAW         0.3870   -2.7560   -0.2640 os        1 734     -0.122000
     24 OAX        -1.6600    2.2240   -0.2570 oh        1 734     -0.243000
     25 CLAY       -0.6050   -1.1760    4.3530 cl        1 734     -0.014000
     26 HAA         5.4580   -0.2660   -3.1250 ha        1 734      0.147833
     27 HAD         0.4990   -1.3460    1.9050 ha        1 734      0.162000
     28 HAH        -2.5780    0.5480    4.8230 ha        1 734      0.155000
     29 HAI        -4.0980    2.3420    4.6460 ha        1 734      0.147833
     30 HAJ        -4.3120    3.6500    2.6870 ha        1 734      0.147833
     31 HAK         4.5250    1.2850   -4.6240 ha        1 734      0.147833
     32 HAM        -0.0200    0.2440   -1.3170 h4        1 734      0.170000
     33 HAN         2.3090    2.0720   -4.3410 ha        1 734      0.147833
     34 HAP         4.2200   -1.0990   -1.2650 ha        1 734      0.147833
     35 HAQ        -2.0250   -1.5910   -1.9870 DU        1 734      0.172000
     36 HAR        -2.1870   -4.0640   -1.5610 DU        1 734      0.172000
     37 HAS        -0.1740   -4.7690   -0.1800 DU        1 734      0.172000
     38 HNAT        2.1930   -0.7210    0.1430 hn        1 734      0.200000
     39 HOAX       -0.9790    2.7810   -0.5060 ho        1 734      0.250000
@<TRIPOS>BOND
     1    1   16 1   
     2    1   26 1   
     3    2    3 1   
     4    2   24 1   
     5    3   13 1   
     6    4    5 1   
     7    4   27 1   
     8    5    7 1   
     9    6   17 1   
    10    6   23 1   
    11    7    8 1   
    12    7   12 1   
    13    8   28 1   
    14    9   10 1   
    15    9   29 1   
    16   10   30 1   
    17   11   14 1   
    18   11   31 1   
    19   12   22 1   
    20   13   20 1   
    21   13   32 1   
    22   14   33 1   
    23   15   20 1   
    24   15   21 1   
    25   16   34 1   
    26   17   18 1   
    27   18   19 1   
    28   19   23 1   
    29   20   38 1   
    30   24   39 1   
@<TRIPOS>SUBSTRUCTURE
     1 734         1 TEMP              0 ****  ****    0 ROOT
