@<TRIPOS>MOLECULE
734
   39    42     1     0     0
SMALL
bcc


@<TRIPOS>ATOM
      1 CAA        -0.3590    1.4350    0.2340 ca        1 734     -0.074000
      2 CAB        -3.3420    1.3630    4.8290 ca        1 734      0.111800
      3 CAC        -2.5420    0.2370    4.9840 ca        1 734     -0.110300
      4 CAD        -2.2130   -0.2190    6.2760 ca        1 734     -0.063000
      5 CAE        -2.6910    0.4270    7.3970 ca        1 734     -0.007600
      6 CAF        -2.2820   -1.9460    3.8670 cc        1 734      0.204000
      7 CAG        -3.5250    1.5700    7.2810 ca        1 734     -0.102300
      8 CAH        -4.0490    2.2730    8.4080 ca        1 734     -0.077000
      9 CAI        -4.8470    3.3710    8.2140 ca        1 734     -0.239300
     10 CAJ        -5.1330    3.7800    6.8730 ca        1 734      0.418200
     11 CAK         0.8080    0.8320   -0.2350 ca        1 734     -0.280300
     12 CAL        -3.8650    2.0550    5.9810 ca        1 734      0.338600
     13 CAM        -1.9960   -0.4810    3.7650 c3        1 734      0.228500
     14 CAN         1.4420   -0.1080    0.5960 ca        1 734      0.423200
     15 CAO        -0.1530    0.1270    2.2680 ca        1 734      0.614200
     16 CAP        -0.8540    1.0940    1.4880 ca        1 734     -0.269300
     17 CAQ        -3.2710   -2.7380    3.3170 cd        1 734     -0.235300
     18 CAR        -3.0210   -4.0900    3.7670 cd        1 734     -0.263300
     19 CAS        -1.8920   -4.0400    4.5600 cc        1 734      0.247600
     20 NAT        -0.5860   -0.1550    3.5880 nu        1 734     -0.814900
     21 NAU         0.9930   -0.4740    1.8050 nb        1 734     -0.713000
     22 NAV        -4.6730    3.1630    5.8020 nb        1 734     -0.679000
     23 OAW        -1.4170   -2.7320    4.6410 os        1 734     -0.369800
     24 OAX        -3.6070    1.7700    3.5460 oh        1 734     -0.503100
     25 ClAY       -2.2640   -0.1680    8.9340 cl        1 734     -0.090400
     26 HAA        -0.8850    2.1820   -0.3800 ha        1 734      0.136000
     27 HAD        -1.5650   -1.1090    6.3680 ha        1 734      0.166000
     28 HAH        -3.8020    1.9220    9.4220 ha        1 734      0.155000
     29 HAI        -5.2690    3.9390    9.0540 ha        1 734      0.150000
     30 HAJ        -5.7760    4.6620    6.6920 h4        1 734      0.026100
     31 HAK         1.2260    1.0800   -1.2170 ha        1 734      0.142000
     32 HAM        -2.5820   -0.1210    2.8600 h1        1 734      0.102700
     33 HAN         2.3700   -0.6130    0.2710 h4        1 734      0.019100
     34 HAP        -1.7600    1.5800    1.8830 ha        1 734      0.159000
     35 HAQ        -4.0860   -2.4250    2.6700 ha        1 734      0.165000
     36 HAR        -3.6180   -4.9620    3.5150 ha        1 734      0.163000
     37 HAS        -1.3040   -4.7640    5.1150 h4        1 734      0.055100
     38 HNAT        0.0140   -0.7830    4.0900 hn        1 734      0.415800
     39 HOAX       -4.1770    2.5540    3.5670 ho        1 734      0.452000
@<TRIPOS>BOND
     1    1   11 ar  
     2    1   16 ar  
     3    1   26 1   
     4    2    3 ar  
     5    2   12 ar  
     6    2   24 1   
     7    3    4 ar  
     8    3   13 1   
     9    4    5 ar  
    10    4   27 1   
    11    5    7 ar  
    12    5   25 1   
    13    6   13 1   
    14    6   17 2   
    15    6   23 1   
    16    7    8 ar  
    17    7   12 ar  
    18    8    9 ar  
    19    8   28 1   
    20    9   10 ar  
    21    9   29 1   
    22   10   22 ar  
    23   10   30 1   
    24   11   14 ar  
    25   11   31 1   
    26   12   22 ar  
    27   13   20 1   
    28   13   32 1   
    29   14   21 ar  
    30   14   33 1   
    31   15   16 ar  
    32   15   20 1   
    33   15   21 ar  
    34   16   34 1   
    35   17   18 1   
    36   17   35 1   
    37   18   19 2   
    38   18   36 1   
    39   19   23 1   
    40   19   37 1   
    41   20   38 1   
    42   24   39 1   
@<TRIPOS>SUBSTRUCTURE
     1 734         1 TEMP              0 ****  ****    0 ROOT
