@<TRIPOS>MOLECULE
735
   54    56     1     0     0
SMALL
bcc


@<TRIPOS>ATOM
      1 C1          0.5110    1.7470    0.2650 c3        1 735     -0.170400
      2 C2          1.5880    0.7290    0.3210 cc        1 735      0.457600
      3 N3          2.5080    0.7490    1.3470 nc        1 735     -0.625000
      4 C4          3.3720   -0.2810    1.2160 cd        1 735      0.486900
      5 S5          3.0780   -1.2860   -0.1230 ss        1 735      0.079700
      6 C6          1.7710   -0.3370   -0.5930 cd        1 735     -0.390000
      7 C7          0.9690   -0.6650   -1.7460 c         1 735      0.606700
      8 O8          0.5910   -1.7760   -2.1080 o         1 735     -0.451100
      9 N9          0.5780    0.4680   -2.6440 n4        1 735     -0.684800
     10 C10         1.7350    0.9350   -3.5200 c3        1 735      0.221100
     11 C11         1.3740    2.2150   -4.1490 ca        1 735     -0.309300
     12 C12         1.4350    3.4000   -3.3930 ca        1 735     -0.058000
     13 C13         1.1250    4.6210   -3.9540 ca        1 735     -0.202000
     14 C14         0.7810    4.6940   -5.3270 ca        1 735      0.270100
     15 O15         0.4650    5.8090   -6.0110 os        1 735     -0.300900
     16 C16         0.6230    7.1250   -5.3910 c3        1 735      0.007800
     17 C17         0.6400    8.0670   -6.5840 c3        1 735     -0.089100
     18 C18        -0.5750    7.3860   -4.5000 c3        1 735     -0.089100
     19 C19         1.9900    7.2480   -4.6280 c         1 735      0.900600
     20 O20         1.9400    7.6370   -3.4290 o         1 735     -0.801800
     21 O21         3.0280    6.9330   -5.2590 o         1 735     -0.801800
     22 C22         0.7160    3.4950   -6.0920 ca        1 735     -0.202000
     23 C23         1.0060    2.2810   -5.5030 ca        1 735     -0.058000
     24 C24         4.4800   -0.5390    2.1230 ca        1 735     -0.142500
     25 C25         5.0250   -1.8330    2.1900 ca        1 735     -0.094500
     26 C26         6.0910   -2.0990    3.0430 ca        1 735     -0.082500
     27 C27         6.6160   -1.0730    3.8350 ca        1 735     -0.137300
     28 C28         6.0810    0.2140    3.7750 ca        1 735     -0.082500
     29 C29         5.0110    0.4830    2.9200 ca        1 735     -0.094500
     30 C30         7.7720   -1.3740    4.7850 c3        1 735      0.686200
     31 F31         8.5810   -0.2980    5.0540 f         1 735     -0.228967
     32 F32         8.6320   -2.3470    4.3370 f         1 735     -0.228967
     33 F33         7.3720   -1.8180    6.0220 f         1 735     -0.228967
     34 H34         0.8030    2.5750   -0.4320 hc        1 735      0.077367
     35 H35         0.3360    2.2090    1.2720 hc        1 735      0.077367
     36 H36        -0.4500    1.2830   -0.0670 hc        1 735      0.077367
     37 H37         4.5920    1.5020    2.8780 ha        1 735      0.157000
     38 H38         6.5050    1.0180    4.4000 ha        1 735      0.166000
     39 H39         6.5240   -3.1110    3.0960 ha        1 735      0.166000
     40 H40         4.6060   -2.6460    1.5750 ha        1 735      0.157000
     41 H41        -0.1950    0.1750   -3.2540 hn        1 735      0.455800
     42 H42         1.9270    0.1210   -4.2720 hx        1 735      0.092200
     43 H43         2.6260    1.0440   -2.8390 hx        1 735      0.092200
     44 H44         0.9700    1.3600   -6.1060 ha        1 735      0.116500
     45 H45         0.4550    3.5640   -7.1580 ha        1 735      0.187500
     46 H46         1.1990    5.5450   -3.3460 ha        1 735      0.187500
     47 H47         1.7560    3.3590   -2.3400 ha        1 735      0.116500
     48 H48        -0.2550    7.9100   -7.2310 hc        1 735      0.042200
     49 H49         0.6460    9.1160   -6.2050 hc        1 735      0.042200
     50 H50         1.5660    7.8870   -7.1830 hc        1 735      0.042200
     51 H51        -0.3820    8.3200   -3.9170 hc        1 735      0.042200
     52 H52        -0.7170    6.5470   -3.7790 hc        1 735      0.042200
     53 H53        -1.5050    7.5030   -5.1050 hc        1 735      0.042200
     54 H92         0.2620    1.2740   -2.0900 hn        1 735      0.455800
@<TRIPOS>BOND
     1    1    2 1   
     2    1   34 1   
     3    1   35 1   
     4    1   36 1   
     5    2    3 1   
     6    2    6 2   
     7    3    4 2   
     8    4    5 1   
     9    4   24 1   
    10    5    6 1   
    11    6    7 1   
    12    7    8 2   
    13    7    9 1   
    14    9   10 1   
    15    9   41 1   
    16    9   54 1   
    17   10   11 1   
    18   10   42 1   
    19   10   43 1   
    20   11   12 ar  
    21   11   23 ar  
    22   12   13 ar  
    23   12   47 1   
    24   13   14 ar  
    25   13   46 1   
    26   14   15 1   
    27   14   22 ar  
    28   15   16 1   
    29   16   17 1   
    30   16   18 1   
    31   16   19 1   
    32   17   48 1   
    33   17   49 1   
    34   17   50 1   
    35   18   51 1   
    36   18   52 1   
    37   18   53 1   
    38   19   20 1   
    39   19   21 1   
    40   22   23 ar  
    41   22   45 1   
    42   23   44 1   
    43   24   25 ar  
    44   24   29 ar  
    45   25   26 ar  
    46   25   40 1   
    47   26   27 ar  
    48   26   39 1   
    49   27   28 ar  
    50   27   30 1   
    51   28   29 ar  
    52   28   38 1   
    53   29   37 1   
    54   30   31 1   
    55   30   32 1   
    56   30   33 1   
@<TRIPOS>SUBSTRUCTURE
     1 735         1 TEMP              0 ****  ****    0 ROOT
