@<TRIPOS>MOLECULE
735
   54    56     1     0     0
SMALL
bcc


@<TRIPOS>ATOM
      1 C1          0.4880    1.7760    0.2430 c3        1 735     -0.170400
      2 C2          1.5620    0.7560    0.3300 cc        1 735      0.457600
      3 N3          2.4640    0.7880    1.3710 nc        1 735     -0.625000
      4 C4          3.3280   -0.2450    1.2680 cd        1 735      0.486900
      5 S5          3.0550   -1.2670   -0.0630 ss        1 735      0.079700
      6 C6          1.7580   -0.3210   -0.5670 cd        1 735     -0.389000
      7 C7          0.9760   -0.6620   -1.7300 c         1 735      0.606700
      8 O8          0.6030   -1.7790   -2.0840 o         1 735     -0.451100
      9 N9          0.5990    0.4600   -2.6470 n4        1 735     -0.684800
     10 C10         1.7710    0.9150   -3.5100 c3        1 735      0.221100
     11 C11         1.4190    2.1850   -4.1630 ca        1 735     -0.309300
     12 C12         1.4660    3.3810   -3.4240 ca        1 735     -0.058000
     13 C13         1.1640    4.5940   -4.0070 ca        1 735     -0.202000
     14 C14         0.8430    4.6470   -5.3860 ca        1 735      0.270100
     15 O15         0.5360    5.7510   -6.0910 os        1 735     -0.300900
     16 C16         0.6810    7.0770   -5.4860 c3        1 735      0.007800
     17 C17         0.7170    8.0010   -6.6930 c3        1 735     -0.089100
     18 C18        -0.5320    7.3470   -4.6200 c3        1 735     -0.089100
     19 C19         2.0350    7.2130   -4.7020 c         1 735      0.900600
     20 O20         1.9630    7.6180   -3.5100 o         1 735     -0.801800
     21 O21         3.0840    6.8910   -5.3110 o         1 735     -0.801800
     22 C22         0.7920    3.4370   -6.1350 ca        1 735     -0.202000
     23 C23         1.0740    2.2320   -5.5240 ca        1 735     -0.058000
     24 C24         4.4200   -0.4940    2.1970 ca        1 735     -0.142500
     25 C25         4.9580   -1.7890    2.2930 ca        1 735     -0.094500
     26 C26         6.0080   -2.0460    3.1680 ca        1 735     -0.082500
     27 C27         6.5230   -1.0100    3.9540 ca        1 735     -0.137300
     28 C28         5.9950    0.2770    3.8660 ca        1 735     -0.082500
     29 C29         4.9410    0.5380    2.9890 ca        1 735     -0.094500
     30 C30         7.6620   -1.3020    4.9290 c3        1 735      0.686200
     31 F31         8.4720   -0.2260    5.1920 f         1 735     -0.228967
     32 F32         8.5230   -2.2870    4.5120 f         1 735     -0.228967
     33 F33         7.2380   -1.7220    6.1660 f         1 735     -0.228967
     34 H34        -0.4690    1.3090   -0.0980 hc        1 735      0.077700
     35 H35         0.7930    2.5940   -0.4610 hc        1 735      0.077700
     36 H36         0.2980    2.2520    1.2410 hc        1 735      0.077700
     37 H37         4.5270    1.5580    2.9240 ha        1 735      0.157000
     38 H38         6.4110    1.0890    4.4860 ha        1 735      0.166000
     39 H39         6.4370   -3.0590    3.2440 ha        1 735      0.166000
     40 H40         4.5470   -2.6090    1.6820 ha        1 735      0.157000
     41 H41        -0.1630    0.1590   -3.2660 hn        1 735      0.455800
     42 H42         1.9770    0.0910   -4.2480 hx        1 735      0.092200
     43 H43         2.6500    1.0340   -2.8160 hx        1 735      0.092200
     44 H44         1.0490    1.3030   -6.1140 ha        1 735      0.116500
     45 H45         0.5490    3.4910   -7.2060 ha        1 735      0.187500
     46 H46         1.2260    5.5260   -3.4110 ha        1 735      0.187500
     47 H47         1.7700    3.3550   -2.3650 ha        1 735      0.116500
     48 H48        -0.1670    7.8330   -7.3520 hc        1 735      0.042200
     49 H49         0.7150    9.0550   -6.3280 hc        1 735      0.042200
     50 H50         1.6530    7.8150   -7.2740 hc        1 735      0.042200
     51 H51        -1.4520    7.4510   -5.2420 hc        1 735      0.042200
     52 H52        -0.3520    8.2910   -4.0490 hc        1 735      0.042200
     53 H53        -0.6840    6.5190   -3.8880 hc        1 735      0.042200
     54 H92         0.2750    1.2720   -2.1080 hn        1 735      0.455800
@<TRIPOS>BOND
     1    1    2 1   
     2    1   34 1   
     3    1   35 1   
     4    1   36 1   
     5    2    3 1   
     6    2    6 2   
     7    3    4 2   
     8    4    5 1   
     9    4   24 1   
    10    5    6 1   
    11    6    7 1   
    12    7    8 2   
    13    7    9 1   
    14    9   10 1   
    15    9   41 1   
    16    9   54 1   
    17   10   11 1   
    18   10   42 1   
    19   10   43 1   
    20   11   12 ar  
    21   11   23 ar  
    22   12   13 ar  
    23   12   47 1   
    24   13   14 ar  
    25   13   46 1   
    26   14   15 1   
    27   14   22 ar  
    28   15   16 1   
    29   16   17 1   
    30   16   18 1   
    31   16   19 1   
    32   17   48 1   
    33   17   49 1   
    34   17   50 1   
    35   18   51 1   
    36   18   52 1   
    37   18   53 1   
    38   19   20 1   
    39   19   21 1   
    40   22   23 ar  
    41   22   45 1   
    42   23   44 1   
    43   24   25 ar  
    44   24   29 ar  
    45   25   26 ar  
    46   25   40 1   
    47   26   27 ar  
    48   26   39 1   
    49   27   28 ar  
    50   27   30 1   
    51   28   29 ar  
    52   28   38 1   
    53   29   37 1   
    54   30   31 1   
    55   30   32 1   
    56   30   33 1   
@<TRIPOS>SUBSTRUCTURE
     1 735         1 TEMP              0 ****  ****    0 ROOT
