@<TRIPOS>MOLECULE
735
   53    55     1     0     0
SMALL
bcc


@<TRIPOS>ATOM
      1 C1         13.1060   40.2420   28.5390 c3        1 735     -0.143400
      2 C2         13.8740   39.3250   29.4150 cc        1 735      0.383600
      3 N3         14.7480   39.8160   30.3730 nc        1 735     -0.625000
      4 C4         15.3140   38.7940   31.0380 cd        1 735      0.398900
      5 S5         14.7980   37.2450   30.5260 ss        1 735      0.023700
      6 C6         13.7970   37.9240   29.3760 cd        1 735     -0.271000
      7 C7         12.9350   37.1180   28.4820 c         1 735      0.690700
      8 O8         12.2340   36.1870   28.9360 o         1 735     -0.613100
      9 N9         13.0190   37.3900   27.1350 n         1 735     -0.531900
     10 C10        12.0870   36.8290   26.1800 c3        1 735      0.139300
     11 C11        11.3940   37.8680   25.3550 ca        1 735     -0.207300
     12 C12        10.0170   38.0750   25.4800 ca        1 735     -0.091500
     13 C13         9.3750   39.0330   24.7090 ca        1 735     -0.198500
     14 C14        10.1150   39.8150   23.7910 ca        1 735      0.193100
     15 O15         9.3600   40.7150   23.0990 os        1 735     -0.326900
     16 C16         9.9950   41.7490   22.3000 c3        1 735      0.020800
     17 C17         8.8040   42.4540   21.6600 c3        1 735     -0.086100
     18 C18        10.7520   42.7040   23.2040 c3        1 735     -0.086100
     19 C19        10.8990   41.1750   21.1560 c         1 735      0.904600
     20 O20        12.1220   41.4930   21.1740 o         1 735     -0.817300
     21 O21        10.3510   40.4630   20.2780 o         1 735     -0.817300
     22 C22        11.4990   39.6030   23.6580 ca        1 735     -0.198500
     23 C23        12.1200   38.6340   24.4350 ca        1 735     -0.091500
     24 C24        16.2890   38.9490   32.1070 ca        1 735     -0.085500
     25 C25        16.5210   37.8820   32.9910 ca        1 735     -0.114500
     26 C26        17.4560   38.0070   34.0140 ca        1 735     -0.084000
     27 C27        18.1650   39.2020   34.1620 ca        1 735     -0.168300
     28 C28        17.9400   40.2700   33.2910 ca        1 735     -0.084000
     29 C29        17.0050   40.1450   32.2650 ca        1 735     -0.114500
     30 C30        19.1740   39.3450   35.2920 c3        1 735      0.687200
     31 F31        20.2110   40.2080   35.0320 f         1 735     -0.239300
     32 F32        19.7980   38.1750   35.6560 f         1 735     -0.239300
     33 F33        18.6410   39.8140   36.4700 f         1 735     -0.239300
     34 H34        13.6710   40.4200   27.5890 hc        1 735      0.066033
     35 H35        12.1110   39.7950   28.2910 hc        1 735      0.066033
     36 H36        12.9360   41.2310   29.0320 hc        1 735      0.066033
     37 H37        16.8290   40.9900   31.5810 ha        1 735      0.156000
     38 H38        18.5060   41.2070   33.4130 ha        1 735      0.151500
     39 H39        17.6420   37.1690   34.7030 ha        1 735      0.151500
     40 H40        15.9580   36.9410   32.8800 ha        1 735      0.156000
     41 H41        13.4660   38.2370   26.8580 hn        1 735      0.311500
     42 H42        11.3340   36.1930   26.7280 h1        1 735      0.061200
     43 H43        12.6820   36.1530   25.4970 h1        1 735      0.061200
     44 H44        13.2000   38.4580   24.3130 ha        1 735      0.118000
     45 H45        12.0850   40.1840   22.9200 ha        1 735      0.171000
     46 H46         8.2920   39.1930   24.7930 ha        1 735      0.171000
     47 H47         9.4350   37.4720   26.1930 ha        1 735      0.118000
     48 H48         9.1770   43.3360   21.0880 hc        1 735      0.034033
     49 H49         8.2960   41.7490   20.9570 hc        1 735      0.034033
     50 H50         8.0770   42.7930   22.4350 hc        1 735      0.034033
     51 H51        11.2380   43.4850   22.5720 hc        1 735      0.034033
     52 H52        11.5530   42.1600   23.7590 hc        1 735      0.034033
     53 H53        10.0640   43.1870   23.9370 hc        1 735      0.034033
@<TRIPOS>BOND
     1    1    2 1   
     2    1   34 1   
     3    1   35 1   
     4    1   36 1   
     5    2    3 1   
     6    2    6 2   
     7    3    4 2   
     8    4    5 1   
     9    4   24 1   
    10    5    6 1   
    11    6    7 1   
    12    7    8 2   
    13    7    9 1   
    14    9   10 1   
    15    9   41 1   
    16   10   11 1   
    17   10   42 1   
    18   10   43 1   
    19   11   12 ar  
    20   11   23 ar  
    21   12   13 ar  
    22   12   47 1   
    23   13   14 ar  
    24   13   46 1   
    25   14   15 1   
    26   14   22 ar  
    27   15   16 1   
    28   16   17 1   
    29   16   18 1   
    30   16   19 1   
    31   17   48 1   
    32   17   49 1   
    33   17   50 1   
    34   18   51 1   
    35   18   52 1   
    36   18   53 1   
    37   19   20 1   
    38   19   21 1   
    39   22   23 ar  
    40   22   45 1   
    41   23   44 1   
    42   24   25 ar  
    43   24   29 ar  
    44   25   26 ar  
    45   25   40 1   
    46   26   27 ar  
    47   26   39 1   
    48   27   28 ar  
    49   27   30 1   
    50   28   29 ar  
    51   28   38 1   
    52   29   37 1   
    53   30   31 1   
    54   30   32 1   
    55   30   33 1   
@<TRIPOS>SUBSTRUCTURE
     1 735         1 TEMP              0 ****  ****    0 ROOT
