@<TRIPOS>MOLECULE
735
   53    49     1     0     0
SMALL
bcc


@<TRIPOS>ATOM
      1 C1          5.0210    3.1460    0.4440 c3        1 735     -0.156000
      2 C2          3.8860    2.2370    0.8190 c2        1 735     -0.027000
      3 N3          3.9830    0.9800    1.7550 n2        1 735     -0.133000
      4 C4          2.6770    0.4090    1.8820 c2        1 735     -0.286000
      5 S5          1.6940    1.2710    1.0360 ss        1 735      0.755000
      6 C6          2.4990    2.3910    0.4000 c1        1 735     -0.548000
      7 C7          1.9690    3.4310   -0.6320 c1        1 735      0.371000
      8 O8          2.7380    4.2000   -1.1600 o         1 735     -0.338000
      9 N9          0.5790    3.5330   -0.8910 n3        1 735     -0.332000
     10 C10         0.1100    3.6840   -2.2580 c3        1 735     -0.002000
     11 C11        -0.7920    2.5050   -2.6150 c2        1 735     -0.192000
     12 C12        -2.1860    2.6340   -2.5080 c2        1 735     -0.106000
     13 C13        -3.0090    1.5180   -2.7050 c1        1 735     -0.179000
     14 C14        -2.4470    0.2830   -3.0070 c1        1 735      0.137000
     15 O15        -3.2750   -0.8240   -3.2410 os        1 735     -0.227000
     16 C16        -3.6260   -1.5640   -2.0360 c3        1 735      0.017000
     17 C17        -5.1370   -1.3200   -1.6990 c3        1 735     -0.204000
     18 C18        -3.3880   -3.0500   -2.2710 c3        1 735     -0.204000
     19 C19        -2.7500   -1.0820   -0.8640 c2        1 735      0.316000
     20 O20        -2.2190   -1.9100   -0.1050 o         1 735     -0.565500
     21 O21        -2.6800    0.1610   -0.5950 o         1 735     -0.565500
     22 C22        -1.0480    0.1530   -3.1140 c1        1 735     -0.170000
     23 C23        -0.2270    1.2640   -2.9170 c2        1 735     -0.092000
     24 C24         2.3410   -0.7670    2.6240 c1        1 735     -0.004000
     25 C25         1.7990   -0.6490    3.9190 c1        1 735     -0.105000
     26 C26         1.4350   -1.7950    4.6330 c1        1 735     -0.113000
     27 C27         1.6060   -3.0580    4.0650 c2        1 735     -0.166000
     28 C28         2.1470   -3.1790    2.7710 c1        1 735     -0.071000
     29 C29         2.5140   -2.0250    2.0510 c1        1 735     -0.108000
     30 C30         1.2030   -4.3360    4.8750 c3        1 735      0.466000
     31 F31         0.9790   -5.3360    4.0440 f         1 735     -0.175667
     32 F32         0.0820   -4.0800    5.5820 f         1 735     -0.175667
     33 F33         2.1910   -4.6660    5.7120 f         1 735     -0.175667
     34 H34         5.8710    2.8240    0.8830 hc        1 735      0.093000
     35 H35         4.8200    4.0640    0.7480 hc        1 735      0.093000
     36 H36         5.1380    3.1400   -0.5560 hc        1 735      0.093000
     37 H37         3.0040   -2.1160    1.1430 ha        1 735      0.232000
     38 H38         2.2060   -4.0450    2.3530 ha        1 735      0.168000
     39 H39         1.0090   -1.7070    5.5450 DU        1 735      0.136500
     40 H40         1.6880    0.2170    4.3160 ha        1 735      0.151000
     41 H41         0.0080    3.5770   -0.2240 hn        1 735      0.193000
     42 H42         0.8730    3.7040   -2.8610 h1        1 735      0.100000
     43 H43        -0.4010    4.5350   -2.3460 h1        1 735      0.100000
     44 H44         0.7640    1.1710   -2.9900 ha        1 735      0.123000
     45 H45        -0.6590   -0.7070   -3.2640 DU        1 735      0.136500
     46 H46        -4.0070    1.6060   -2.6040 ha        1 735      0.177000
     47 H47        -2.5740    3.4820   -2.3030 ha        1 735      0.118000
     48 H48        -5.3230   -0.3420   -1.7050 hc        1 735      0.074500
     49 H49        -5.3520   -1.7050   -0.7670 hc        1 735      0.074500
     50 H50        -5.7030   -1.7690   -2.3790 hc        1 735      0.074500
     51 H51        -2.4510   -3.2250   -2.2630 hc        1 735      0.074500
     52 H52        -3.8140   -3.5580   -1.5780 hc        1 735      0.074500
     53 H53        -3.7620   -3.3060   -3.1430 hc        1 735      0.074500
@<TRIPOS>BOND
     1    1    2 1   
     2    1   34 1   
     3    1   35 1   
     4    1   36 1   
     5    2    3 1   
     6    2    6 1   
     7    3    4 1   
     8    4    5 1   
     9    4   24 1   
    10    5    6 1   
    11    7    8 1   
    12    7    9 1   
    13    9   10 1   
    14    9   41 1   
    15   10   11 1   
    16   10   42 1   
    17   10   43 1   
    18   11   12 1   
    19   11   23 1   
    20   12   13 1   
    21   12   47 1   
    22   13   46 1   
    23   14   15 1   
    24   14   22 1   
    25   15   16 1   
    26   16   17 1   
    27   16   18 1   
    28   16   19 1   
    29   17   48 1   
    30   17   49 1   
    31   17   50 1   
    32   18   51 1   
    33   18   52 1   
    34   18   53 1   
    35   19   20 1   
    36   19   21 1   
    37   22   23 1   
    38   23   44 1   
    39   24   29 1   
    40   25   26 1   
    41   25   40 1   
    42   26   27 1   
    43   27   28 1   
    44   27   30 1   
    45   28   38 1   
    46   29   37 1   
    47   30   31 1   
    48   30   32 1   
    49   30   33 1   
@<TRIPOS>SUBSTRUCTURE
     1 735         1 TEMP              0 ****  ****    0 ROOT
