@<TRIPOS>MOLECULE
735
   54    56     1     0     0
SMALL
bcc


@<TRIPOS>ATOM
      1 C1          0.4890    1.6730    0.2140 c3        1 735     -0.170400
      2 C2          1.5900    0.6800    0.2790 cc        1 735      0.457600
      3 N3          2.4860    0.7070    1.3250 nc        1 735     -0.625000
      4 C4          3.3780   -0.3000    1.1980 cd        1 735      0.486900
      5 S5          3.1380   -1.2900   -0.1630 ss        1 735      0.079700
      6 C6          1.8190   -0.3660   -0.6470 cd        1 735     -0.390000
      7 C7          1.0520   -0.6950   -1.8230 c         1 735      0.606700
      8 O8          0.7090   -1.8100   -2.2100 o         1 735     -0.451100
      9 N9          0.6510    0.4430   -2.7120 ny        1 735     -0.684800
     10 C10         1.8150    0.9530   -3.5540 c3        1 735      0.221100
     11 C11         1.4350    2.2320   -4.1720 ca        1 735     -0.309300
     12 C12         1.4490    3.4070   -3.3970 ca        1 735     -0.058000
     13 C13         1.1190    4.6280   -3.9470 ca        1 735     -0.202000
     14 C14         0.8040    4.7130   -5.3260 ca        1 735      0.270100
     15 O15         0.4740    5.8290   -6.0010 os        1 735     -0.300900
     16 C16         0.5830    7.1400   -5.3570 c3        1 735      0.007800
     17 C17         0.6020    8.1000   -6.5360 c3        1 735     -0.089100
     18 C18        -0.6400    7.3560   -4.4900 c3        1 735     -0.089100
     19 C19         1.9290    7.2860   -4.5620 c         1 735      0.900600
     20 O20         1.8420    7.6550   -3.3590 o         1 735     -0.801800
     21 O21         2.9890    7.0080   -5.1750 o         1 735     -0.801800
     22 C22         0.7870    3.5240   -6.1100 ca        1 735     -0.202000
     23 C23         1.0960    2.3090   -5.5320 ca        1 735     -0.058000
     24 C24         4.4720   -0.5450    2.1250 ca        1 735     -0.142500
     25 C25         5.0470   -1.8270    2.1850 ca        1 735     -0.094500
     26 C26         6.1000   -2.0800    3.0570 ca        1 735     -0.082500
     27 C27         6.5820   -1.0540    3.8760 ca        1 735     -0.137300
     28 C28         6.0170    0.2200    3.8250 ca        1 735     -0.082500
     29 C29         4.9600    0.4770    2.9500 ca        1 735     -0.094500
     30 C30         7.7240   -1.3420    4.8480 c3        1 735      0.686200
     31 F31         8.5000   -0.2510    5.1510 f         1 735     -0.228967
     32 F32         8.6180   -2.2850    4.4030 f         1 735     -0.228967
     33 F33         7.3080   -1.8160    6.0680 f         1 735     -0.228967
     34 H34         0.7760    2.5190   -0.4640 hc        1 735      0.077367
     35 H35         0.2810    2.1150    1.2240 hc        1 735      0.077367
     36 H36        -0.4530    1.1910   -0.1460 hc        1 735      0.077367
     37 H37         4.5170    1.4860    2.9140 ha        1 735      0.157000
     38 H38         6.4070    1.0250    4.4710 ha        1 735      0.166000
     39 H39         6.5570   -3.0820    3.1040 ha        1 735      0.166000
     40 H40         4.6620   -2.6390    1.5470 ha        1 735      0.157000
     41 H41        -0.1000    0.1400   -3.3440 hn        1 735      0.455800
     42 H42         2.0460    0.1560   -4.3140 hx        1 735      0.092200
     43 H43         2.6880    1.0740   -2.8510 hx        1 735      0.092200
     44 H44         1.0970    1.3970   -6.1500 ha        1 735      0.116500
     45 H45         0.5480    3.6030   -7.1800 ha        1 735      0.187500
     46 H46         1.1550    5.5440   -3.3240 ha        1 735      0.187500
     47 H47         1.7470    3.3580   -2.3380 ha        1 735      0.116500
     48 H48        -0.2740    7.9290   -7.2050 hc        1 735      0.042200
     49 H49         0.5720    9.1430   -6.1410 hc        1 735      0.042200
     50 H50         1.5450    7.9530   -7.1170 hc        1 735      0.042200
     51 H51        -0.4850    8.2850   -3.8900 hc        1 735      0.042200
     52 H52        -0.7760    6.5020   -3.7850 hc        1 735      0.042200
     53 H53        -1.5600    7.4570   -5.1140 hc        1 735      0.042200
     54 H92         0.3020    1.2310   -2.1520 hn        1 735      0.455800
@<TRIPOS>BOND
     1    1    2 1   
     2    1   34 1   
     3    1   35 1   
     4    1   36 1   
     5    2    3 1   
     6    2    6 2   
     7    3    4 2   
     8    4    5 1   
     9    4   24 1   
    10    5    6 1   
    11    6    7 1   
    12    7    8 2   
    13    7    9 1   
    14    9   10 1   
    15    9   41 1   
    16    9   54 1   
    17   10   11 1   
    18   10   42 1   
    19   10   43 1   
    20   11   12 ar  
    21   11   23 ar  
    22   12   13 ar  
    23   12   47 1   
    24   13   14 ar  
    25   13   46 1   
    26   14   15 1   
    27   14   22 ar  
    28   15   16 1   
    29   16   17 1   
    30   16   18 1   
    31   16   19 1   
    32   17   48 1   
    33   17   49 1   
    34   17   50 1   
    35   18   51 1   
    36   18   52 1   
    37   18   53 1   
    38   19   20 1   
    39   19   21 1   
    40   22   23 ar  
    41   22   45 1   
    42   23   44 1   
    43   24   25 ar  
    44   24   29 ar  
    45   25   26 ar  
    46   25   40 1   
    47   26   27 ar  
    48   26   39 1   
    49   27   28 ar  
    50   27   30 1   
    51   28   29 ar  
    52   28   38 1   
    53   29   37 1   
    54   30   31 1   
    55   30   32 1   
    56   30   33 1   
@<TRIPOS>SUBSTRUCTURE
     1 735         1 TEMP              0 ****  ****    0 ROOT
