@<TRIPOS>MOLECULE
736
   61    65     1     0     0
SMALL
bcc


@<TRIPOS>ATOM
      1 C1          0.1160   -0.0750    0.0240 ca        1 736      0.396200
      2 N2          1.4510    0.0500    0.0270 nb        1 736     -0.670000
      3 C3          2.0990    0.0270    1.2200 ca        1 736      0.416600
      4 C4          1.4110   -0.1250    2.4520 ca        1 736     -0.135100
      5 C5          0.0080   -0.2480    2.4140 ca        1 736     -0.091000
      6 C6         -0.6540   -0.2300    1.1930 ca        1 736     -0.244300
      7 C9          3.6110    0.1350    1.1750 c3        1 736     -0.063700
      8 C10         4.1810   -1.1210    1.7650 ca        1 736     -0.051300
      9 C11         3.9800   -1.5030    3.1010 ca        1 736     -0.057800
     10 C12         3.2540   -0.6530    4.0690 ce        1 736      0.174800
     11 C13         2.0590   -0.0840    3.7440 cf        1 736     -0.170200
     12 C18         4.8810   -1.9840    0.9060 ca        1 736     -0.119000
     13 C19         5.3550   -3.2140    1.3450 ca        1 736     -0.117000
     14 C20         5.1150   -3.6050    2.6670 ca        1 736      0.013400
     15 C21         4.4320   -2.7590    3.5380 ca        1 736     -0.117000
     16 C24         4.1210    1.4250    1.8210 c3        1 736     -0.060700
     17 C25         5.6420    1.4780    1.7810 c3        1 736     -0.091900
     18 C26         6.1540    2.8040    2.3480 c3        1 736      0.222300
     19 N27         5.5520    3.9640    1.7400 n3        1 736     -0.818500
     20 C28         4.1110    3.9330    1.6920 c3        1 736      0.222300
     21 C29         3.5450    2.6390    1.1040 c3        1 736     -0.091900
     22 Cl40        5.6560   -5.1210    3.2130 cl        1 736     -0.087400
     23 S1          6.4240    5.1520    1.0640 s6        1 736      1.458900
     24 N1          3.8200   -0.3970    5.3400 nh        1 736     -0.674400
     25 C2          3.0190   -0.7030    6.5080 c3        1 736      0.164800
     26 C7          5.2510   -0.4840    5.5210 c3        1 736      0.164800
     27 C8          3.5450   -1.8830    7.3550 c3        1 736      0.121800
     28 C14         5.7530   -1.6150    6.4470 c3        1 736      0.121800
     29 N3          4.9640   -1.8370    7.6420 n7        1 736     -0.793200
     30 O1          7.7160    5.1950    1.6300 o         1 736     -0.652800
     31 C15         6.5930    4.6500   -0.5580 c3        1 736     -0.363300
     32 O2          5.6910    6.3580    1.0570 o         1 736     -0.652800
     33 H1         -0.3640   -0.0490   -0.9720 h4        1 736      0.023100
     34 H5         -0.5540   -0.3630    3.3530 ha        1 736      0.139000
     35 H6         -1.7450   -0.3330    1.1320 ha        1 736      0.145000
     36 H9          3.9370    0.1830    0.0900 hc        1 736      0.078700
     37 H13         1.4940    0.4820    4.5080 ha        1 736      0.139000
     38 H18         5.0470   -1.6890   -0.1420 ha        1 736      0.144000
     39 H19         5.9020   -3.8770    0.6570 ha        1 736      0.151000
     40 H21         4.2280   -3.0810    4.5720 ha        1 736      0.154000
     41 H24         3.7920    1.4600    2.8980 hc        1 736      0.075700
     42 H251        6.0000    1.3450    0.7270 hc        1 736      0.052200
     43 H252        6.0670    0.6420    2.3960 hc        1 736      0.052200
     44 H261        5.9370    2.8240    3.4560 h1        1 736      0.058200
     45 H262        7.2730    2.8610    2.2150 h1        1 736      0.058200
     46 H281        3.7490    4.8110    1.0820 h1        1 736      0.058200
     47 H282        3.7120    4.0540    2.7410 h1        1 736      0.058200
     48 H291        3.7750    2.5790    0.0080 hc        1 736      0.052200
     49 H292        2.4300    2.6560    1.2180 hc        1 736      0.052200
     50 H21A        1.9600   -0.9290    6.2060 h1        1 736      0.054700
     51 H22         3.0090    0.2270    7.1470 h1        1 736      0.054700
     52 H71         5.7660   -0.5890    4.5260 h1        1 736      0.054700
     53 H72         5.5650    0.5050    5.9690 h1        1 736      0.054700
     54 H81         3.3400   -2.8480    6.8120 h1        1 736      0.060450
     55 H82         2.9770   -1.9010    8.3250 h1        1 736      0.060450
     56 H141        6.8090   -1.3710    6.7490 h1        1 736      0.060450
     57 H142        5.7760   -2.5840    5.8740 h1        1 736      0.060450
     58 HN3         5.1520   -1.1140    8.3150 hn        1 736      0.353800
     59 H151        7.1360    5.4310   -1.1490 h1        1 736      0.111367
     60 H152        5.6190    4.4870   -1.0780 h1        1 736      0.111367
     61 H153        7.1810    3.7080   -0.6680 h1        1 736      0.111367
@<TRIPOS>BOND
     1    1    2 ar  
     2    1    6 ar  
     3    1   33 1   
     4    2    3 ar  
     5    3    4 ar  
     6    3    7 1   
     7    4    5 ar  
     8    4   11 1   
     9    5    6 ar  
    10    5   34 1   
    11    6   35 1   
    12    7    8 1   
    13    7   16 1   
    14    7   36 1   
    15    8    9 ar  
    16    8   12 ar  
    17    9   10 1   
    18    9   15 ar  
    19   10   11 2   
    20   10   24 1   
    21   11   37 1   
    22   12   13 ar  
    23   12   38 1   
    24   13   14 ar  
    25   13   39 1   
    26   14   15 ar  
    27   14   22 1   
    28   15   40 1   
    29   16   17 1   
    30   16   21 1   
    31   16   41 1   
    32   17   18 1   
    33   17   42 1   
    34   17   43 1   
    35   18   19 1   
    36   18   44 1   
    37   18   45 1   
    38   19   20 1   
    39   19   23 1   
    40   20   21 1   
    41   20   46 1   
    42   20   47 1   
    43   21   48 1   
    44   21   49 1   
    45   23   30 2   
    46   23   31 1   
    47   23   32 2   
    48   24   25 1   
    49   24   26 1   
    50   25   27 1   
    51   25   50 1   
    52   25   51 1   
    53   26   28 1   
    54   26   52 1   
    55   26   53 1   
    56   27   29 1   
    57   27   54 1   
    58   27   55 1   
    59   28   29 1   
    60   28   56 1   
    61   28   57 1   
    62   29   58 1   
    63   31   59 1   
    64   31   60 1   
    65   31   61 1   
@<TRIPOS>SUBSTRUCTURE
     1 736         1 TEMP              0 ****  ****    0 ROOT
