@<TRIPOS>MOLECULE
736
   61    65     1     0     0
SMALL
bcc


@<TRIPOS>ATOM
      1 C1          0.1360   -0.0910    0.0380 ca        1 736      0.396200
      2 N2          1.4710    0.0370    0.0440 nb        1 736     -0.670000
      3 C3          2.1160    0.0210    1.2400 ca        1 736      0.416600
      4 C4          1.4250   -0.1260    2.4710 ca        1 736     -0.135100
      5 C5          0.0220   -0.2540    2.4290 ca        1 736     -0.091000
      6 C6         -0.6360   -0.2430    1.2060 ca        1 736     -0.244300
      7 C9          3.6280    0.1340    1.1980 c3        1 736     -0.063700
      8 C10         4.2000   -1.1180    1.7940 ca        1 736     -0.050300
      9 C11         3.9910   -1.4960    3.1310 ca        1 736     -0.056800
     10 C12         3.2650   -0.6410    4.0940 ce        1 736      0.169800
     11 C13         2.0690   -0.0770    3.7640 cf        1 736     -0.168200
     12 C18         4.9040   -1.9840    0.9420 ca        1 736     -0.118000
     13 C19         5.3740   -3.2140    1.3860 ca        1 736     -0.116000
     14 C20         5.1220   -3.6030    2.7070 ca        1 736      0.013400
     15 C21         4.4340   -2.7540    3.5710 ca        1 736     -0.117000
     16 C24         4.1330    1.4290    1.8380 c3        1 736     -0.060700
     17 C25         5.6540    1.4870    1.7930 c3        1 736     -0.092400
     18 C26         6.1620    2.8180    2.3500 c3        1 736      0.222300
     19 N27         5.5540    3.9720    1.7370 n3        1 736     -0.817500
     20 C28         4.1130    3.9360    1.6980 c3        1 736      0.222300
     21 C29         3.5490    2.6370    1.1190 c3        1 736     -0.092400
     22 CL40        5.6540   -5.1200    3.2580 cl        1 736     -0.091400
     23 S1          6.4170    5.1550    1.0400 s6        1 736      1.458900
     24 N1          3.8330   -0.3680    5.3600 nh        1 736     -0.669400
     25 C2          3.0550   -0.6870    6.5380 c3        1 736      0.200800
     26 C7          5.2640   -0.4510    5.5440 c3        1 736      0.200800
     27 C8          3.5530   -1.9240    7.3190 c3        1 736      0.131800
     28 C14         5.7800   -1.6210    6.4110 c3        1 736      0.131800
     29 N3          4.9740   -1.8680    7.5880 n3        1 736     -0.817200
     30 O1          7.7170    5.2040    1.5900 o         1 736     -0.652300
     31 C15         6.5680    4.6380   -0.5800 c3        1 736     -0.363300
     32 O2          5.6840    6.3610    1.0310 o         1 736     -0.652300
     33 H1         -0.3410   -0.0710   -0.9580 h4        1 736      0.023100
     34 H5         -0.5420   -0.3650    3.3670 ha        1 736      0.140000
     35 H6         -1.7270   -0.3480    1.1430 ha        1 736      0.145000
     36 H9          3.9560    0.1780    0.1130 hc        1 736      0.078700
     37 H13         1.5020    0.4930    4.5240 ha        1 736      0.140000
     38 H18         5.0780   -1.6910   -0.1060 ha        1 736      0.144000
     39 H19         5.9260   -3.8780    0.7040 ha        1 736      0.151000
     40 H21         4.2160   -3.0750    4.6030 ha        1 736      0.150000
     41 H24         3.8080    1.4650    2.9160 hc        1 736      0.076700
     42 H251        6.0100    1.3500    0.7390 hc        1 736      0.051950
     43 H252        6.0850    0.6570    2.4110 hc        1 736      0.051950
     44 H261        5.9490    2.8450    3.4590 h1        1 736      0.059200
     45 H262        7.2810    2.8790    2.2130 h1        1 736      0.059200
     46 H281        3.7200    4.0590    2.7490 h1        1 736      0.059200
     47 H282        3.7440    4.8090    1.0870 h1        1 736      0.059200
     48 H291        2.4350    2.6500    1.2390 hc        1 736      0.051950
     49 H292        3.7730    2.5720    0.0220 hc        1 736      0.051950
     50 H21A        3.1080    0.2120    7.2170 h1        1 736      0.059450
     51 H22         1.9790   -0.8620    6.2610 h1        1 736      0.059450
     52 H71         5.5640    0.5140    6.0490 h1        1 736      0.059450
     53 H72         5.7830   -0.5030    4.5470 h1        1 736      0.059450
     54 H81         3.0180   -1.9480    8.3090 h1        1 736      0.035950
     55 H82         3.2600   -2.8530    6.7460 h1        1 736      0.035950
     56 H141        5.8770   -2.5380    5.7590 h1        1 736      0.035950
     57 H142        6.8150   -1.3510    6.7650 h1        1 736      0.035950
     58 HN3         5.2750   -2.7100    8.0430 hn        1 736      0.367800
     59 H151        5.5870    4.4650   -1.0850 h1        1 736      0.111033
     60 H152        7.1600    3.6990   -0.6880 h1        1 736      0.111033
     61 H153        7.0980    5.4160   -1.1850 h1        1 736      0.111033
@<TRIPOS>BOND
     1    1    2 ar  
     2    1    6 ar  
     3    1   33 1   
     4    2    3 ar  
     5    3    4 ar  
     6    3    7 1   
     7    4    5 ar  
     8    4   11 1   
     9    5    6 ar  
    10    5   34 1   
    11    6   35 1   
    12    7    8 1   
    13    7   16 1   
    14    7   36 1   
    15    8    9 ar  
    16    8   12 ar  
    17    9   10 1   
    18    9   15 ar  
    19   10   11 2   
    20   10   24 1   
    21   11   37 1   
    22   12   13 ar  
    23   12   38 1   
    24   13   14 ar  
    25   13   39 1   
    26   14   15 ar  
    27   14   22 1   
    28   15   40 1   
    29   16   17 1   
    30   16   21 1   
    31   16   41 1   
    32   17   18 1   
    33   17   42 1   
    34   17   43 1   
    35   18   19 1   
    36   18   44 1   
    37   18   45 1   
    38   19   20 1   
    39   19   23 1   
    40   20   21 1   
    41   20   46 1   
    42   20   47 1   
    43   21   48 1   
    44   21   49 1   
    45   23   30 2   
    46   23   31 1   
    47   23   32 2   
    48   24   25 1   
    49   24   26 1   
    50   25   27 1   
    51   25   50 1   
    52   25   51 1   
    53   26   28 1   
    54   26   52 1   
    55   26   53 1   
    56   27   29 1   
    57   27   54 1   
    58   27   55 1   
    59   28   29 1   
    60   28   56 1   
    61   28   57 1   
    62   29   58 1   
    63   31   59 1   
    64   31   60 1   
    65   31   61 1   
@<TRIPOS>SUBSTRUCTURE
     1 736         1 TEMP              0 ****  ****    0 ROOT
