@<TRIPOS>MOLECULE
736
   61    59     1     0     0
SMALL
bcc


@<TRIPOS>ATOM
      1 C1         -3.6810   -0.3820   -2.8180 c1        1 736     -0.124000
      2 N2         -2.3450   -0.6400   -2.6880 n1        1 736     -0.144000
      3 C3         -1.6960   -0.3410   -1.5100 c1        1 736     -0.006000
      4 C4         -2.3960    0.2210   -0.4560 c1        1 736     -0.057000
      5 C5         -3.7460    0.4820   -0.5870 c1        1 736     -0.090000
      6 C6         -4.3880    0.1840   -1.7590 c1        1 736     -0.124000
      7 C9         -0.3750   -0.9330   -1.0340 c3        1 736     -0.020000
      8 C10        -0.5430   -1.6250    0.3200 c2        1 736     -0.048000
      9 C11         0.0340   -0.8790    1.3320 c2        1 736     -0.034000
     10 C12        -0.7410    0.4070    1.5680 c2        1 736      0.073000
     11 C13        -1.4730    1.0550    0.4320 c2        1 736     -0.203000
     12 C18        -0.4150   -3.0220    0.3200 c1        1 736     -0.122000
     13 C19         0.2910   -3.6550    1.3350 c1        1 736     -0.116000
     14 C20         0.8720   -2.9030    2.3540 c1        1 736     -0.070000
     15 C21         0.7460   -1.5190    2.3560 c1        1 736     -0.102000
     16 C24         0.6670    0.1900   -0.9050 c3        1 736     -0.094000
     17 C25         2.0300   -0.3960   -1.0790 c3        1 736     -0.171000
     18 C26         2.2760   -0.8690   -2.4960 c3        1 736     -0.016000
     19 N27         1.9760    0.1690   -3.4970 n3        1 736     -0.837000
     20 C28         0.6270    0.7540   -3.3320 c3        1 736     -0.016000
     21 C29         0.3730    1.2340   -1.9170 c3        1 736     -0.171000
     22 CL40        2.2360   -3.9470    2.6560 cl        1 736     -0.012000
     23 S1          2.6600    0.0930   -4.9910 s4        1 736      2.030800
     24 N1         -0.9260    0.8870    2.8950 n3        1 736     -0.242000
     25 C2         -1.1790   -0.1100    4.0490 c3        1 736     -0.053500
     26 C7          0.2090    1.6580    3.6030 c3        1 736     -0.053500
     27 C8         -1.6230    0.5710    5.3240 c3        1 736     -0.077500
     28 C14        -0.2450    2.3260    4.8820 c3        1 736     -0.077500
     29 N3         -1.3170    1.8030    5.3180 n3        1 736     -0.300000
     30 O1          1.6740    0.2460   -6.0250 o         1 736     -0.539400
     31 C15         3.9430    1.3060   -5.1410 c2        1 736     -0.941000
     32 O2          3.1560   -1.2270   -5.2710 o         1 736     -0.539400
     33 H1         -4.1390   -0.5930   -3.6530 ha        1 736      0.153000
     34 H5         -4.2410    0.8780    0.1550 ha        1 736      0.140000
     35 H6         -5.3430    0.3690   -1.8520 ha        1 736      0.153000
     36 H9         -0.0630   -1.5860   -1.6890 hc        1 736      0.122000
     37 H13        -1.3680    2.0110    0.2660 ha        1 736      0.136000
     38 H18        -0.8210   -3.5480   -0.3940 ha        1 736      0.144000
     39 H19         0.3800   -4.6270    1.3350 ha        1 736      0.151000
     40 H21         1.1530   -0.9930    3.0700 ha        1 736      0.163000
     41 H24         0.6020    0.5840   -0.0140 hc        1 736      0.103000
     42 H251        2.1280   -1.1560   -0.4700 hc        1 736      0.091500
     43 H252        2.6970    0.2810   -0.8510 hc        1 736      0.091500
     44 H261        1.7130   -1.6500   -2.6710 h1        1 736      0.100000
     45 H262        3.2150   -1.1300   -2.5830 h1        1 736      0.100000
     46 H281        0.5340    1.5120   -3.9440 h1        1 736      0.100000
     47 H282       -0.0410    0.0780   -3.5610 h1        1 736      0.100000
     48 H291        0.9370    2.0140   -1.7410 hc        1 736      0.091500
     49 H292       -0.5660    1.4970   -1.8370 hc        1 736      0.091500
     50 H21A       -1.8720   -0.7430    3.7730 h1        1 736      0.085750
     51 H22        -0.3540   -0.6030    4.2260 h1        1 736      0.085750
     52 H71         0.9320    1.0340    3.8130 h1        1 736      0.085750
     53 H72         0.5520    2.3440    2.9950 h1        1 736      0.085750
     54 H81        -1.1880    0.1370    6.0870 h1        1 736      0.077750
     55 H82        -2.5950    0.4820    5.4140 h1        1 736      0.077750
     56 H141       -0.3990    3.2780    4.7100 h1        1 736      0.077750
     57 H142        0.4560    2.2310    5.5600 h1        1 736      0.077750
     58 HN3        -1.5310    2.1750    6.1280 hn        1 736      0.163000
     59 H151        4.3240    1.2690   -6.0440 ha        1 736      0.150000
     60 H152        4.6450    1.1220   -4.4830 ha        1 736      0.150000
     61 H153        3.5700    2.1970   -4.9800 ha        1 736      0.150000
@<TRIPOS>BOND
     1    1    6 1   
     2    1   33 1   
     3    2    3 1   
     4    3    7 1   
     5    4    5 1   
     6    4   11 1   
     7    5   34 1   
     8    6   35 1   
     9    7    8 1   
    10    7   16 1   
    11    7   36 1   
    12    8    9 1   
    13    8   12 1   
    14    9   10 1   
    15    9   15 1   
    16   10   11 1   
    17   10   24 1   
    18   11   37 1   
    19   12   38 1   
    20   13   14 1   
    21   13   39 1   
    22   14   22 1   
    23   15   40 1   
    24   16   17 1   
    25   16   21 1   
    26   16   41 1   
    27   17   18 1   
    28   17   42 1   
    29   17   43 1   
    30   18   19 1   
    31   18   44 1   
    32   18   45 1   
    33   19   20 1   
    34   19   23 1   
    35   20   21 1   
    36   20   46 1   
    37   20   47 1   
    38   21   48 1   
    39   21   49 1   
    40   23   30 1   
    41   23   32 1   
    42   24   25 1   
    43   24   26 1   
    44   25   27 1   
    45   25   50 1   
    46   25   51 1   
    47   26   28 1   
    48   26   52 1   
    49   26   53 1   
    50   27   29 1   
    51   27   54 1   
    52   27   55 1   
    53   28   29 1   
    54   28   56 1   
    55   28   57 1   
    56   29   58 1   
    57   31   59 1   
    58   31   60 1   
    59   31   61 1   
@<TRIPOS>SUBSTRUCTURE
     1 736         1 TEMP              0 ****  ****    0 ROOT
