@<TRIPOS>MOLECULE
736
   61    65     1     0     0
SMALL
bcc


@<TRIPOS>ATOM
      1 C1          0.1360   -0.0880    0.0400 ca        1 736      0.396200
      2 N2          1.4700    0.0400    0.0450 nb        1 736     -0.670000
      3 C3          2.1160    0.0230    1.2410 ca        1 736      0.416600
      4 C4          1.4250   -0.1270    2.4710 ca        1 736     -0.135100
      5 C5          0.0220   -0.2540    2.4300 ca        1 736     -0.091000
      6 C6         -0.6370   -0.2410    1.2070 ca        1 736     -0.244300
      7 C9          3.6280    0.1350    1.1980 c3        1 736     -0.063700
      8 C10         4.2000   -1.1170    1.7930 ca        1 736     -0.050300
      9 C11         3.9920   -1.4960    3.1290 ca        1 736     -0.056800
     10 C12         3.2660   -0.6430    4.0930 ce        1 736      0.169800
     11 C13         2.0700   -0.0780    3.7640 cf        1 736     -0.168200
     12 C18         4.9040   -1.9820    0.9390 ca        1 736     -0.118000
     13 C19         5.3740   -3.2120    1.3820 ca        1 736     -0.116000
     14 C20         5.1230   -3.6030    2.7020 ca        1 736      0.013400
     15 C21         4.4350   -2.7550    3.5680 ca        1 736     -0.117000
     16 C24         4.1330    1.4290    1.8390 c3        1 736     -0.060700
     17 C25         5.6540    1.4890    1.7930 c3        1 736     -0.092400
     18 C26         6.1630    2.8190    2.3510 c3        1 736      0.222300
     19 N27         5.5540    3.9740    1.7400 n3        1 736     -0.817500
     20 C28         4.1120    3.9370    1.7020 c3        1 736      0.222300
     21 C29         3.5480    2.6380    1.1220 c3        1 736     -0.092400
     22 CL40        5.6540   -5.1200    3.2520 cl        1 736     -0.091400
     23 S1          6.4150    5.1570    1.0430 s6        1 736      1.458900
     24 N1          3.8350   -0.3710    5.3590 nh        1 736     -0.669400
     25 C2          3.0570   -0.6910    6.5380 c3        1 736      0.200800
     26 C7          5.2660   -0.4540    5.5430 c3        1 736      0.200800
     27 C8          3.5550   -1.9280    7.3170 c3        1 736      0.131800
     28 C14         5.7820   -1.6250    6.4080 c3        1 736      0.131800
     29 N3          4.9760   -1.8730    7.5860 n3        1 736     -0.817200
     30 O1          7.7160    5.2050    1.5910 o         1 736     -0.652300
     31 C15         6.5630    4.6430   -0.5770 c3        1 736     -0.363300
     32 O2          5.6820    6.3630    1.0370 o         1 736     -0.652300
     33 H1         -0.3420   -0.0680   -0.9570 h4        1 736      0.023100
     34 H5         -0.5410   -0.3660    3.3680 ha        1 736      0.140000
     35 H6         -1.7270   -0.3470    1.1440 ha        1 736      0.145000
     36 H9          3.9550    0.1800    0.1130 hc        1 736      0.078700
     37 H13         1.5030    0.4910    4.5250 ha        1 736      0.140000
     38 H18         5.0780   -1.6880   -0.1080 ha        1 736      0.144000
     39 H19         5.9260   -3.8760    0.6990 ha        1 736      0.151000
     40 H21         4.2170   -3.0770    4.5990 ha        1 736      0.150000
     41 H24         3.8090    1.4650    2.9170 hc        1 736      0.076700
     42 H251        6.0860    0.6580    2.4100 hc        1 736      0.051950
     43 H252        6.0080    1.3520    0.7380 hc        1 736      0.051950
     44 H261        7.2810    2.8800    2.2130 h1        1 736      0.058950
     45 H262        5.9500    2.8450    3.4600 h1        1 736      0.058950
     46 H281        3.7200    4.0590    2.7540 h1        1 736      0.058950
     47 H282        3.7420    4.8110    1.0920 h1        1 736      0.058950
     48 H291        2.4340    2.6510    1.2430 hc        1 736      0.051950
     49 H292        3.7710    2.5750    0.0250 hc        1 736      0.051950
     50 H21A        1.9810   -0.8650    6.2610 h1        1 736      0.059450
     51 H22         3.1100    0.2070    7.2180 h1        1 736      0.059450
     52 H71         5.7840   -0.5040    4.5450 h1        1 736      0.059450
     53 H72         5.5660    0.5100    6.0490 h1        1 736      0.059450
     54 H81         3.0210   -1.9540    8.3070 h1        1 736      0.035950
     55 H82         3.2610   -2.8570    6.7440 h1        1 736      0.035950
     56 H141        6.8170   -1.3550    6.7630 h1        1 736      0.035950
     57 H142        5.8780   -2.5420    5.7550 h1        1 736      0.035950
     58 HN3         5.2780   -2.7150    8.0390 hn        1 736      0.367800
     59 H151        7.0910    5.4230   -1.1830 h1        1 736      0.111033
     60 H152        7.1570    3.7050   -0.6890 h1        1 736      0.111033
     61 H153        5.5820    4.4690   -1.0800 h1        1 736      0.111033
@<TRIPOS>BOND
     1    1    2 ar  
     2    1    6 ar  
     3    1   33 1   
     4    2    3 ar  
     5    3    4 ar  
     6    3    7 1   
     7    4    5 ar  
     8    4   11 1   
     9    5    6 ar  
    10    5   34 1   
    11    6   35 1   
    12    7    8 1   
    13    7   16 1   
    14    7   36 1   
    15    8    9 ar  
    16    8   12 ar  
    17    9   10 1   
    18    9   15 ar  
    19   10   11 2   
    20   10   24 1   
    21   11   37 1   
    22   12   13 ar  
    23   12   38 1   
    24   13   14 ar  
    25   13   39 1   
    26   14   15 ar  
    27   14   22 1   
    28   15   40 1   
    29   16   17 1   
    30   16   21 1   
    31   16   41 1   
    32   17   18 1   
    33   17   42 1   
    34   17   43 1   
    35   18   19 1   
    36   18   44 1   
    37   18   45 1   
    38   19   20 1   
    39   19   23 1   
    40   20   21 1   
    41   20   46 1   
    42   20   47 1   
    43   21   48 1   
    44   21   49 1   
    45   23   30 2   
    46   23   31 1   
    47   23   32 2   
    48   24   25 1   
    49   24   26 1   
    50   25   27 1   
    51   25   50 1   
    52   25   51 1   
    53   26   28 1   
    54   26   52 1   
    55   26   53 1   
    56   27   29 1   
    57   27   54 1   
    58   27   55 1   
    59   28   29 1   
    60   28   56 1   
    61   28   57 1   
    62   29   58 1   
    63   31   59 1   
    64   31   60 1   
    65   31   61 1   
@<TRIPOS>SUBSTRUCTURE
     1 736         1 TEMP              0 ****  ****    0 ROOT
