@<TRIPOS>MOLECULE
736
   61    65     1     0     0
SMALL
bcc


@<TRIPOS>ATOM
      1 C1          0.3160   -4.9020    0.2380 ca        1 736      0.396200
      2 N2         -0.0630   -3.8240   -0.4630 nb        1 736     -0.670000
      3 C3          0.2210   -2.5930    0.0400 ca        1 736      0.416600
      4 C4          0.8990   -2.4190    1.2740 ca        1 736     -0.135100
      5 C5          1.2780   -3.5730    1.9880 ca        1 736     -0.091000
      6 C6          0.9930   -4.8300    1.4710 ca        1 736     -0.244300
      7 C9         -0.1930   -1.4020   -0.8040 c3        1 736     -0.063700
      8 C10         1.0470   -0.6430   -1.1690 ca        1 736     -0.050300
      9 C11         1.8780   -0.0290   -0.2180 ca        1 736     -0.056800
     10 C12         1.5500    0.0020    1.2230 ce        1 736      0.169800
     11 C13         1.1540   -1.1280    1.8730 cf        1 736     -0.168200
     12 C18         1.4270   -0.6250   -2.5210 ca        1 736     -0.118000
     13 C19         2.6170   -0.0370   -2.9310 ca        1 736     -0.116000
     14 C20         3.4620    0.5320   -1.9720 ca        1 736      0.013400
     15 C21         3.0990    0.5340   -0.6270 ca        1 736     -0.117000
     16 C24        -1.2760   -0.5590   -0.1280 c3        1 736     -0.060700
     17 C25        -1.6440    0.6340   -0.9980 c3        1 736     -0.092400
     18 C26        -2.7890    1.4320   -0.3700 c3        1 736      0.222300
     19 N27        -3.9370    0.6290   -0.0340 n3        1 736     -0.817500
     20 C28        -3.6340   -0.5500    0.7380 c3        1 736      0.222300
     21 C29        -2.5150   -1.4040    0.1390 c3        1 736     -0.092400
     22 CL40        4.9410    1.2220   -2.4480 cl        1 736     -0.091400
     23 S1         -5.4290    0.9560   -0.5800 s6        1 736      1.458900
     24 N1          1.6040    1.2250    1.9310 nh        1 736     -0.669400
     25 C2          2.4410    1.2910    3.1110 c3        1 736      0.200800
     26 C7          1.4620    2.4770    1.2250 c3        1 736      0.200800
     27 C8          3.7430    2.1020    2.9280 c3        1 736      0.131800
     28 C14         2.7270    3.3570    1.1210 c3        1 736      0.131800
     29 N3          3.5020    3.4040    2.3430 n3        1 736     -0.817200
     30 O1         -5.5470    2.3270   -0.8950 o         1 736     -0.652300
     31 C15        -5.5160    0.0870   -2.0460 c3        1 736     -0.363300
     32 O2         -6.4010    0.4150    0.2880 o         1 736     -0.652300
     33 H1          0.0610   -5.8780   -0.2130 h4        1 736      0.023100
     34 H5          1.8010   -3.4690    2.9500 ha        1 736      0.140000
     35 H6          1.2830   -5.7460    2.0010 ha        1 736      0.145000
     36 H9         -0.6570   -1.7860   -1.7660 hc        1 736      0.078700
     37 H13         0.9900   -1.1040    2.9670 ha        1 736      0.140000
     38 H18         0.7760   -1.0990   -3.2730 ha        1 736      0.144000
     39 H19         2.8970   -0.0310   -3.9950 ha        1 736      0.151000
     40 H21         3.7790    0.9620    0.1280 ha        1 736      0.150000
     41 H24        -0.8910   -0.1750    0.8590 hc        1 736      0.076700
     42 H251       -1.9350    0.2840   -2.0220 hc        1 736      0.051950
     43 H252       -0.7580    1.3130   -1.1070 hc        1 736      0.051950
     44 H261       -3.1090    2.2490   -1.0800 h1        1 736      0.059200
     45 H262       -2.4050    1.9240    0.5720 h1        1 736      0.059200
     46 H281       -3.3240   -0.2320    1.7760 h1        1 736      0.059200
     47 H282       -4.5700   -1.1730    0.8340 h1        1 736      0.059200
     48 H291       -2.8620   -1.8830   -0.8140 hc        1 736      0.051950
     49 H292       -2.2690   -2.2240    0.8610 hc        1 736      0.051950
     50 H21A        1.8250    1.7780    3.9210 h1        1 736      0.059450
     51 H22         2.7210    0.2560    3.4510 h1        1 736      0.059450
     52 H71         1.0780    2.2960    0.1830 h1        1 736      0.059450
     53 H72         0.6790    3.0610    1.7930 h1        1 736      0.059450
     54 H81         4.1970    2.2640    3.9450 h1        1 736      0.035950
     55 H82         4.4690    1.4850    2.3210 h1        1 736      0.035950
     56 H141        2.3920    4.4100    0.8970 h1        1 736      0.035950
     57 H142        3.3400    3.0060    0.2390 h1        1 736      0.035950
     58 HN3         4.3700    3.8800    2.1830 hn        1 736      0.367800
     59 H151       -4.8010    0.4550   -2.8200 h1        1 736      0.111033
     60 H152       -5.3300   -1.0080   -1.9270 h1        1 736      0.111033
     61 H153       -6.5380    0.1840   -2.4920 h1        1 736      0.111033
@<TRIPOS>BOND
     1    1    2 ar  
     2    1    6 ar  
     3    1   33 1   
     4    2    3 ar  
     5    3    4 ar  
     6    3    7 1   
     7    4    5 ar  
     8    4   11 1   
     9    5    6 ar  
    10    5   34 1   
    11    6   35 1   
    12    7    8 1   
    13    7   16 1   
    14    7   36 1   
    15    8    9 ar  
    16    8   12 ar  
    17    9   10 1   
    18    9   15 ar  
    19   10   11 2   
    20   10   24 1   
    21   11   37 1   
    22   12   13 ar  
    23   12   38 1   
    24   13   14 ar  
    25   13   39 1   
    26   14   15 ar  
    27   14   22 1   
    28   15   40 1   
    29   16   17 1   
    30   16   21 1   
    31   16   41 1   
    32   17   18 1   
    33   17   42 1   
    34   17   43 1   
    35   18   19 1   
    36   18   44 1   
    37   18   45 1   
    38   19   20 1   
    39   19   23 1   
    40   20   21 1   
    41   20   46 1   
    42   20   47 1   
    43   21   48 1   
    44   21   49 1   
    45   23   30 2   
    46   23   31 1   
    47   23   32 2   
    48   24   25 1   
    49   24   26 1   
    50   25   27 1   
    51   25   50 1   
    52   25   51 1   
    53   26   28 1   
    54   26   52 1   
    55   26   53 1   
    56   27   29 1   
    57   27   54 1   
    58   27   55 1   
    59   28   29 1   
    60   28   56 1   
    61   28   57 1   
    62   29   58 1   
    63   31   59 1   
    64   31   60 1   
    65   31   61 1   
@<TRIPOS>SUBSTRUCTURE
     1 736         1 TEMP              0 ****  ****    0 ROOT
