@<TRIPOS>MOLECULE
737
   78    70     1     0     0
SMALL
bcc


@<TRIPOS>ATOM
      1 CX          0.3930   -2.1790   -0.9600 c1        1 737      0.296000
      2 CY         -1.0120   -2.2780   -0.4550 c2        1 737     -0.001000
      3 CZ          1.4720   -3.0690   -0.3780 c2        1 737     -0.390000
      4 OX          0.6710   -1.3740   -1.8340 o         1 737     -0.285000
      5 N05        -1.7390   -1.1090   -0.8320 n         1 737     -0.366000
      6 C06        -1.6830   -3.5120   -1.0580 c3        1 737     -0.167000
      7 C07        -1.6430   -4.6610   -0.0520 c3        1 737     -0.166000
      8 C08        -1.9820   -5.9900   -0.7720 c3        1 737     -0.049000
      9 N09        -0.9500   -6.9550   -0.5060 n3        1 737     -0.337000
     10 C10        -0.9950   -8.2600   -1.1400 c2        1 737      0.160000
     11 N11        -2.0440   -9.1820   -0.8110 n3        1 737     -0.319000
     12 N12        -0.0700   -8.5990   -2.0150 n1        1 737     -0.354000
     13 C13        -1.3820    0.1830   -0.2630 c2        1 737      0.288000
     14 O14        -0.4330    0.2720    0.5020 o         1 737     -0.377000
     15 C15        -2.2550    1.4140   -0.5500 c3        1 737     -0.055000
     16 N16        -1.5380    2.6300   -0.1330 n3        1 737     -0.256000
     17 C17        -2.2490    3.6840    0.6150 c2        1 737      0.122000
     18 N18        -1.5380    4.9060    1.0240 n1        1 737     -0.152000
     19 C19        -0.1600    5.0870    0.6750 c1        1 737     -0.121000
     20 C20         0.5390    4.0590   -0.1130 c1        1 737     -0.044000
     21 C21        -0.1810    2.8250   -0.5230 c1        1 737      0.316000
     22 N22         1.9320    4.2490   -0.4840 n3        1 737     -0.243000
     23 C23        -3.7100    3.4730    1.0340 c2        1 737     -0.061000
     24 C24        -4.0260    2.5070    1.9840 c2        1 737     -0.100000
     25 C25        -5.3270    2.4000    2.4620 c1        1 737     -0.126000
     26 C26        -6.3210    3.2650    1.9870 c1        1 737     -0.113000
     27 C27        -6.0070    4.2310    1.0380 c1        1 737     -0.078000
     28 C28        -4.7030    4.3380    0.5590 c1        1 737     -0.088000
     29 C29        -7.0660    5.2750    0.6230 c3        1 737     -0.180000
     30 O30         0.3920    1.9760   -1.1710 o         1 737     -0.388000
     31 N31         1.6420   -3.6190    0.9290 n2        1 737     -0.084000
     32 C32         2.9290   -4.5240    0.9230 c1        1 737     -0.137000
     33 C33         3.5010   -4.4910   -0.4040 c1        1 737     -0.474000
     34 S34         2.6260   -3.5890   -1.2680 ss        1 737      0.621000
     35 C35         2.9390    4.3580    0.5410 c3        1 737     -0.007000
     36 C36         4.2420    3.7670    0.0350 c2        1 737     -0.077000
     37 C37         4.8550    4.6490   -0.8500 c2        1 737     -0.101000
     38 C38         6.0650    4.3100   -1.4470 c1        1 737     -0.133000
     39 C39         6.6640    3.0870   -1.1590 c1        1 737     -0.101000
     40 C40         6.0460    2.1930   -0.2630 c1        1 737     -0.085000
     41 C41         6.6860    1.0170    0.0940 c1        1 737     -0.132000
     42 C42         6.1290    0.1930    1.0310 c1        1 737     -0.132000
     43 C43         4.9180    0.5350    1.6260 c1        1 737     -0.042000
     44 N44         4.2860    1.6950    1.2750 n1        1 737     -0.148000
     45 C45         4.8480    2.5290    0.3280 c1        1 737      0.005000
     46 HY         -1.0020   -2.3570    0.5300 h4        1 737      0.155000
     47 H05        -2.3880   -1.1630   -1.4670 hn        1 737      0.263000
     48 H061       -2.6180   -3.3020   -1.2770 hc        1 737      0.107000
     49 H062       -1.2110   -3.7740   -1.8670 hc        1 737      0.107000
     50 H071       -0.7540   -4.7210    0.3370 hc        1 737      0.094000
     51 H072       -2.3030   -4.4950    0.6620 hc        1 737      0.094000
     52 H081       -2.0400   -5.8340   -1.7280 h1        1 737      0.084000
     53 H082       -2.8400   -6.3300   -0.4440 h1        1 737      0.084000
     54 H09        -0.2920   -6.7630    0.0960 hn        1 737      0.195000
     55 H111       -1.9920  -10.0590   -1.0930 hn        1 737      0.189000
     56 H112       -2.7560   -8.9050   -0.3140 hn        1 737      0.189000
     57 H12         0.5990   -8.0110   -2.2240 DU        1 737      0.173333
     58 H151       -3.1030    1.3410   -0.0460 h1        1 737      0.141000
     59 H152       -2.4470    1.4610   -1.5070 h1        1 737      0.141000
     60 H19         0.3110    5.9020    0.9470 ha        1 737      0.171000
     61 H22         2.1540    4.3860   -1.3540 hn        1 737      0.221000
     62 H24        -3.3340    1.9040    2.3150 ha        1 737      0.152000
     63 H25        -5.5480    1.7210    3.1290 ha        1 737      0.141000
     64 H26        -7.2380    3.1890    2.3250 ha        1 737      0.135000
     65 H28        -4.4810    5.0180   -0.1100 ha        1 737      0.146000
     66 H291       -7.7670    4.8370    0.0960 hc        1 737      0.085667
     67 H292       -6.6380    5.9810    0.0800 hc        1 737      0.085667
     68 H293       -7.4650    5.6770    1.4290 hc        1 737      0.085667
     69 H32         3.2810   -5.0230    1.6850 DU        1 737      0.173333
     70 H33         4.3070   -4.9620   -0.6960 DU        1 737      0.173333
     71 H351        2.6490    3.8730    1.3330 h1        1 737      0.094500
     72 H352        3.0760    5.3090    0.7680 h1        1 737      0.094500
     73 H37         4.4360    5.5050   -1.0520 ha        1 737      0.140000
     74 H38         6.4940    4.9300   -2.0680 ha        1 737      0.137000
     75 H39         7.5130    2.8490   -1.5780 ha        1 737      0.136000
     76 H41         7.5360    0.7780   -0.3240 ha        1 737      0.143000
     77 H42         6.5770   -0.6310    1.2820 ha        1 737      0.143000
     78 H43         4.5230   -0.0500    2.2920 ha        1 737      0.187000
@<TRIPOS>BOND
     1    1    3 1   
     2    1    4 1   
     3    2    5 1   
     4    2    6 1   
     5    2   46 1   
     6    3   31 1   
     7    3   34 1   
     8    5   13 1   
     9    5   47 1   
    10    6    7 1   
    11    6   48 1   
    12    6   49 1   
    13    7    8 1   
    14    7   50 1   
    15    7   51 1   
    16    8    9 1   
    17    8   52 1   
    18    8   53 1   
    19    9   10 1   
    20    9   54 1   
    21   10   11 1   
    22   10   12 1   
    23   11   55 1   
    24   11   56 1   
    25   13   14 1   
    26   13   15 1   
    27   15   16 1   
    28   15   58 1   
    29   15   59 1   
    30   16   17 1   
    31   16   21 1   
    32   17   18 1   
    33   17   23 1   
    34   19   20 1   
    35   19   60 1   
    36   20   22 1   
    37   21   30 1   
    38   22   35 1   
    39   22   61 1   
    40   23   24 1   
    41   23   28 1   
    42   24   25 1   
    43   24   62 1   
    44   25   63 1   
    45   26   27 1   
    46   26   64 1   
    47   27   29 1   
    48   28   65 1   
    49   29   66 1   
    50   29   67 1   
    51   29   68 1   
    52   31   32 1   
    53   32   33 1   
    54   33   34 1   
    55   35   36 1   
    56   35   71 1   
    57   35   72 1   
    58   36   37 1   
    59   36   45 1   
    60   37   38 1   
    61   37   73 1   
    62   38   74 1   
    63   39   40 1   
    64   39   75 1   
    65   40   45 1   
    66   41   42 1   
    67   41   76 1   
    68   42   77 1   
    69   43   44 1   
    70   43   78 1   
@<TRIPOS>SUBSTRUCTURE
     1 737         1 TEMP              0 ****  ****    0 ROOT
