@<TRIPOS>MOLECULE
737
   82    86     1     0     0
SMALL
bcc


@<TRIPOS>ATOM
      1 CX          2.4430   -1.6370    1.3920 c         1 737      0.511600
      2 CY          3.1340   -0.9090    0.2100 c3        1 737      0.040500
      3 CZ          1.3120   -2.4820    1.0700 cc        1 737      0.118900
      4 OX          2.8540   -1.4350    2.5400 o         1 737     -0.517100
      5 N05         4.0370    0.1840    0.7220 ny        1 737     -0.683800
      6 C06         3.8770   -1.9350   -0.6650 c3        1 737     -0.080400
      7 C07         3.4130   -1.8960   -2.1170 c3        1 737     -0.107400
      8 C08         3.6940   -3.2550   -2.7680 c3        1 737      0.106800
      9 N09         3.2410   -3.2950   -4.2110 ny        1 737     -0.786000
     10 C10         3.5340   -4.6200   -4.8860 c2        1 737      0.612100
     11 N11         3.2000   -4.6500   -6.3560 nz        1 737     -0.821600
     12 N12         4.0080   -5.6860   -4.3860 n2        1 737     -0.576100
     13 C13         3.2920    1.4810    1.0040 c         1 737      0.536100
     14 O14         2.9320    2.1080    0.0260 o         1 737     -0.384100
     15 C15         3.0570    1.8270    2.4800 c3        1 737      0.027000
     16 N16         3.9730    2.8140    2.9880 n         1 737     -0.380300
     17 C17         3.5390    4.0840    3.4450 cc        1 737      0.646500
     18 N18         4.3860    4.9740    3.9750 nd        1 737     -0.577300
     19 C19         5.6910    4.6480    4.1690 cd        1 737      0.260600
     20 C20         6.2100    3.4040    3.8050 cc        1 737     -0.260200
     21 C21         5.3370    2.4460    3.1300 c         1 737      0.718700
     22 N22         7.5850    3.0330    4.0770 ny        1 737     -0.609800
     23 C23         2.1060    4.4480    3.3550 ca        1 737     -0.230900
     24 C24         1.1600    3.7590    4.1310 ca        1 737     -0.131000
     25 C25        -0.1620    4.1940    4.1340 ca        1 737     -0.111000
     26 C26        -0.5410    5.3050    3.3770 ca        1 737     -0.072000
     27 C27         0.4020    6.0000    2.6080 ca        1 737     -0.046300
     28 C28         1.7360    5.5710    2.6070 ca        1 737     -0.071000
     29 C29         0.0010    7.2000    1.8390 c3        1 737     -0.077800
     30 O30         5.7180    1.3540    2.6400 o         1 737     -0.723500
     31 N31         0.9440   -2.8090   -0.2120 nd        1 737     -0.681000
     32 C32        -0.1720   -3.5750   -0.1640 cd        1 737      0.334200
     33 C33        -0.6500   -3.8370    1.1450 cc        1 737     -0.271400
     34 S34         0.2900   -3.1370    2.2580 ss        1 737      0.363700
     35 C35         7.8630    2.8690    5.5590 c3        1 737      0.204100
     36 C36         9.2890    3.1400    5.8820 ca        1 737     -0.268600
     37 C37        10.0780    2.1450    6.4290 ca        1 737     -0.038000
     38 C38        11.3830    2.4230    6.8820 ca        1 737     -0.143000
     39 C39        11.8900    3.7010    6.7970 ca        1 737     -0.028000
     40 C40        11.1170    4.7450    6.2310 ca        1 737     -0.150300
     41 C41        11.6070    6.0820    6.1420 ca        1 737     -0.037000
     42 C42        10.8150    7.0550    5.5830 ca        1 737     -0.234300
     43 C43         9.5260    6.6840    5.0900 ca        1 737      0.466200
     44 N44         9.0290    5.4570    5.1490 nb        1 737     -0.790000
     45 C45         9.8030    4.4740    5.7400 ca        1 737      0.410600
     46 HY          2.3220   -0.3970   -0.3960 hx        1 737      0.137700
     47 H05         4.4940   -0.1200    1.6060 hn        1 737      0.481800
     48 H061        3.6870   -2.9580   -0.2330 hc        1 737      0.093200
     49 H062        4.9900   -1.7820   -0.6310 hc        1 737      0.093200
     50 H071        2.3110   -1.6730   -2.1620 hc        1 737      0.094700
     51 H072        3.9560   -1.0790   -2.6640 hc        1 737      0.094700
     52 H081        4.8020   -3.4690   -2.7440 hx        1 737      0.128200
     53 H082        3.1270   -4.0550   -2.2050 hx        1 737      0.128200
     54 H09         2.2230   -3.1180   -4.2300 hn        1 737      0.484800
     55 H111        2.1950   -4.4700   -6.5120 hn        1 737      0.519467
     56 H112        3.4160   -5.6020   -6.7380 hn        1 737      0.519467
     57 H12         4.2790   -5.8300   -3.4310 hn        1 737      0.544400
     58 H151        3.1300    0.8870    3.1100 h1        1 737      0.146700
     59 H152        1.9910    2.2220    2.5280 h1        1 737      0.146700
     60 H19         6.3080    5.4440    4.6520 h4        1 737      0.242000
     61 H22         8.2030    3.7740    3.7030 hn        1 737      0.469300
     62 H24         1.4630    2.9190    4.7730 ha        1 737      0.136000
     63 H25        -0.9080    3.6770    4.7590 ha        1 737      0.168000
     64 H26        -1.5890    5.6520    3.3990 ha        1 737      0.176000
     65 H28         2.4880    6.1350    2.0320 ha        1 737      0.157000
     66 H291        0.7200    7.4150    1.0110 hc        1 737      0.072700
     67 H292       -0.0240    8.0920    2.5190 hc        1 737      0.072700
     68 H293       -1.0210    7.0720    1.4030 hc        1 737      0.072700
     69 H32        -0.6540   -3.9320   -1.0830 h4        1 737      0.061100
     70 H33        -1.5500   -4.4380    1.3390 h4        1 737      0.239000
     71 H351        7.2020    3.6000    6.1100 hx        1 737      0.104200
     72 H352        7.5640    1.8190    5.8400 hx        1 737      0.104200
     73 H37         9.6870    1.1210    6.5450 ha        1 737      0.143000
     74 H38        11.9840    1.6100    7.3220 ha        1 737      0.174000
     75 H39        12.9030    3.9310    7.1730 ha        1 737      0.175000
     76 H41        12.6150    6.3120    6.5290 ha        1 737      0.176000
     77 H42        11.1450    8.1020    5.5050 ha        1 737      0.182000
     78 H43         8.8820    7.4550    4.6230 h4        1 737      0.035100
     79 H052        4.7740    0.3750    0.0340 hn        1 737      0.481800
     80 H092        3.7160   -2.5300   -4.7170 hn        1 737      0.484800
     81 H113        3.7720   -3.9670   -6.8790 hn        1 737      0.519467
     82 H222        7.8010    2.1550    3.5890 hn        1 737      0.469300
@<TRIPOS>BOND
     1    1    2 1   
     2    1    3 1   
     3    1    4 2   
     4    2    5 1   
     5    2    6 1   
     6    2   46 1   
     7    3   31 2   
     8    3   34 1   
     9    5   13 1   
    10    5   47 1   
    11    5   79 1   
    12    6    7 1   
    13    6   48 1   
    14    6   49 1   
    15    7    8 1   
    16    7   50 1   
    17    7   51 1   
    18    8    9 1   
    19    8   52 1   
    20    8   53 1   
    21    9   10 1   
    22    9   54 1   
    23    9   80 1   
    24   10   11 1   
    25   10   12 2   
    26   11   55 1   
    27   11   56 1   
    28   11   81 1   
    29   12   57 1   
    30   13   14 2   
    31   13   15 1   
    32   15   16 1   
    33   15   58 1   
    34   15   59 1   
    35   16   17 1   
    36   16   21 1   
    37   17   18 2   
    38   17   23 1   
    39   18   19 1   
    40   19   20 2   
    41   19   60 1   
    42   20   21 1   
    43   20   22 1   
    44   21   30 2   
    45   22   35 1   
    46   22   61 1   
    47   22   82 1   
    48   23   24 ar  
    49   23   28 ar  
    50   24   25 ar  
    51   24   62 1   
    52   25   26 ar  
    53   25   63 1   
    54   26   27 ar  
    55   26   64 1   
    56   27   28 ar  
    57   27   29 1   
    58   28   65 1   
    59   29   66 1   
    60   29   67 1   
    61   29   68 1   
    62   31   32 1   
    63   32   33 2   
    64   32   69 1   
    65   33   34 1   
    66   33   70 1   
    67   35   36 1   
    68   35   71 1   
    69   35   72 1   
    70   36   37 ar  
    71   36   45 ar  
    72   37   38 ar  
    73   37   73 1   
    74   38   39 ar  
    75   38   74 1   
    76   39   40 ar  
    77   39   75 1   
    78   40   41 ar  
    79   40   45 ar  
    80   41   42 ar  
    81   41   76 1   
    82   42   43 ar  
    83   42   77 1   
    84   43   44 ar  
    85   43   78 1   
    86   44   45 ar  
@<TRIPOS>SUBSTRUCTURE
     1 737         1 TEMP              0 ****  ****    0 ROOT
