@<TRIPOS>MOLECULE
737
   82    86     1     0     0
SMALL
bcc


@<TRIPOS>ATOM
      1 CX          2.5490   -1.5830    1.4280 c         1 737      0.511600
      2 CY          3.1930   -0.7980    0.2560 c3        1 737      0.040500
      3 CZ          1.4780   -2.4990    1.0940 cc        1 737      0.118900
      4 OX          2.9440   -1.3670    2.5800 o         1 737     -0.517100
      5 N05         4.0210    0.3460    0.7820 n4        1 737     -0.683800
      6 C06         4.0040   -1.7640   -0.6280 c3        1 737     -0.080400
      7 C07         3.5390   -1.7400   -2.0810 c3        1 737     -0.107400
      8 C08         3.9050   -3.0730   -2.7440 c3        1 737      0.106800
      9 N09         3.4570   -3.1270   -4.1880 n4        1 737     -0.786000
     10 C10         3.8320   -4.4240   -4.8750 c2        1 737      0.612100
     11 N11         3.5020   -4.4620   -6.3450 n4        1 737     -0.821600
     12 N12         4.3720   -5.4630   -4.3840 n2        1 737     -0.576100
     13 C13         3.1910    1.5870    1.0770 c         1 737      0.536100
     14 O14         2.7920    2.1990    0.1050 o         1 737     -0.384100
     15 C15         2.9320    1.9010    2.5560 c3        1 737      0.027000
     16 N16         3.7780    2.9450    3.0740 n         1 737     -0.380300
     17 C17         3.2570    4.1770    3.5420 cc        1 737      0.646500
     18 N18         4.0430    5.1220    4.0730 nd        1 737     -0.575300
     19 C19         5.3680    4.8860    4.2570 cd        1 737      0.253600
     20 C20         5.9730    3.6840    3.8880 cc        1 737     -0.253200
     21 C21         5.1650    2.6710    3.2100 c         1 737      0.718700
     22 N22         7.3710    3.4100    4.1490 n4        1 737     -0.625800
     23 C23         1.8020    4.4390    3.4640 ca        1 737     -0.229900
     24 C24         0.9110    3.6730    4.2320 ca        1 737     -0.131000
     25 C25        -0.4390    4.0130    4.2480 ca        1 737     -0.111000
     26 C26        -0.9000    5.1060    3.5110 ca        1 737     -0.071000
     27 C27        -0.0120    5.8790    2.7510 ca        1 737     -0.046300
     28 C28         1.3490    5.5460    2.7360 ca        1 737     -0.070000
     29 C29        -0.5010    7.0610    2.0050 c3        1 737     -0.077800
     30 O30         5.6180    1.6120    2.7100 o         1 737     -0.719500
     31 N31         1.1360   -2.8370   -0.1920 nd        1 737     -0.681000
     32 C32         0.0730   -3.6750   -0.1550 cd        1 737      0.334200
     33 C33        -0.3910   -3.9810    1.1500 cc        1 737     -0.271400
     34 S34         0.4970   -3.2310    2.2720 ss        1 737      0.363700
     35 C35         7.6560    3.2110    5.6190 c3        1 737      0.199100
     36 C36         9.1160    3.1740    5.9150 ca        1 737     -0.257600
     37 C37         9.6140    2.1780    6.7330 ca        1 737     -0.042000
     38 C38        10.9500    2.2100    7.1840 ca        1 737     -0.138000
     39 C39        11.7800    3.2470    6.8250 ca        1 737     -0.036000
     40 C40        11.3130    4.2770    5.9700 ca        1 737     -0.146300
     41 C41        12.1440    5.3710    5.5840 ca        1 737     -0.034000
     42 C42        11.6430    6.3340    4.7420 ca        1 737     -0.236300
     43 C43        10.3050    6.1940    4.2620 ca        1 737      0.474200
     44 N44         9.5000    5.1970    4.5980 nb        1 737     -0.801000
     45 C45         9.9740    4.2400    5.4760 ca        1 737      0.409600
     46 HY          2.3500   -0.3350   -0.3450 hx        1 737      0.137700
     47 H05         4.7450    0.5930    0.0990 hn        1 737      0.481800
     48 H061        5.1040   -1.5370   -0.5900 hc        1 737      0.093200
     49 H062        3.8820   -2.8010   -0.2070 hc        1 737      0.093200
     50 H071        2.4250   -1.5860   -2.1250 hc        1 737      0.094200
     51 H072        4.0300   -0.8860   -2.6190 hc        1 737      0.094200
     52 H081        5.0240   -3.2180   -2.7190 hx        1 737      0.128200
     53 H082        3.3880   -3.9120   -2.1890 hx        1 737      0.128200
     54 H09         2.4300   -3.0130   -4.2070 hn        1 737      0.484800
     55 H111        3.7780   -5.3950   -6.7360 hn        1 737      0.519467
     56 H112        2.4880   -4.3440   -6.5010 hn        1 737      0.519467
     57 H12         4.6510   -5.5990   -3.4290 hn        1 737      0.544400
     58 H151        1.8410    2.2220    2.6070 h1        1 737      0.146700
     59 H152        3.0700    0.9630    3.1770 h1        1 737      0.146700
     60 H19         5.9250    5.7250    4.7370 h4        1 737      0.230000
     61 H22         7.9490    4.2280    3.8300 hn        1 737      0.482300
     62 H24         1.2760    2.8450    4.8590 ha        1 737      0.135000
     63 H25        -1.1430    3.4340    4.8670 ha        1 737      0.168000
     64 H26        -1.9700    5.3780    3.5430 ha        1 737      0.176000
     65 H28         2.0560    6.1720    2.1680 ha        1 737      0.158000
     66 H291       -0.5810    7.9390    2.6990 hc        1 737      0.072700
     67 H292       -1.5150    6.8700    1.5730 hc        1 737      0.072700
     68 H293        0.1940    7.3370    1.1740 hc        1 737      0.072700
     69 H32        -0.3830   -4.0540   -1.0790 h4        1 737      0.061100
     70 H33        -1.2490   -4.6420    1.3350 h4        1 737      0.239000
     71 H351        7.1470    2.2600    5.9430 hx        1 737      0.100200
     72 H352        7.1860    4.0830    6.1640 hx        1 737      0.100200
     73 H37         8.9640    1.3540    7.0720 ha        1 737      0.146000
     74 H38        11.3120    1.4040    7.8450 ha        1 737      0.174000
     75 H39        12.8190    3.2940    7.1990 ha        1 737      0.174000
     76 H41        13.1750    5.4260    5.9720 ha        1 737      0.177000
     77 H42        12.2420    7.2040    4.4290 ha        1 737      0.183000
     78 H43         9.8930    6.9510    3.5660 h4        1 737      0.037100
     79 H052        4.4960    0.0630    1.6650 hn        1 737      0.481800
     80 H092        3.8840   -2.3300   -4.6850 hn        1 737      0.484800
     81 H113        4.0300   -3.7390   -6.8610 hn        1 737      0.519467
     82 H222        7.6620    2.5750    3.6280 hn        1 737      0.482300
@<TRIPOS>BOND
     1    1    2 1   
     2    1    3 1   
     3    1    4 2   
     4    2    5 1   
     5    2    6 1   
     6    2   46 1   
     7    3   31 2   
     8    3   34 1   
     9    5   13 1   
    10    5   47 1   
    11    5   79 1   
    12    6    7 1   
    13    6   48 1   
    14    6   49 1   
    15    7    8 1   
    16    7   50 1   
    17    7   51 1   
    18    8    9 1   
    19    8   52 1   
    20    8   53 1   
    21    9   10 1   
    22    9   54 1   
    23    9   80 1   
    24   10   11 1   
    25   10   12 2   
    26   11   55 1   
    27   11   56 1   
    28   11   81 1   
    29   12   57 1   
    30   13   14 2   
    31   13   15 1   
    32   15   16 1   
    33   15   58 1   
    34   15   59 1   
    35   16   17 1   
    36   16   21 1   
    37   17   18 2   
    38   17   23 1   
    39   18   19 1   
    40   19   20 2   
    41   19   60 1   
    42   20   21 1   
    43   20   22 1   
    44   21   30 2   
    45   22   35 1   
    46   22   61 1   
    47   22   82 1   
    48   23   24 ar  
    49   23   28 ar  
    50   24   25 ar  
    51   24   62 1   
    52   25   26 ar  
    53   25   63 1   
    54   26   27 ar  
    55   26   64 1   
    56   27   28 ar  
    57   27   29 1   
    58   28   65 1   
    59   29   66 1   
    60   29   67 1   
    61   29   68 1   
    62   31   32 1   
    63   32   33 2   
    64   32   69 1   
    65   33   34 1   
    66   33   70 1   
    67   35   36 1   
    68   35   71 1   
    69   35   72 1   
    70   36   37 ar  
    71   36   45 ar  
    72   37   38 ar  
    73   37   73 1   
    74   38   39 ar  
    75   38   74 1   
    76   39   40 ar  
    77   39   75 1   
    78   40   41 ar  
    79   40   45 ar  
    80   41   42 ar  
    81   41   76 1   
    82   42   43 ar  
    83   42   77 1   
    84   43   44 ar  
    85   43   78 1   
    86   44   45 ar  
@<TRIPOS>SUBSTRUCTURE
     1 737         1 TEMP              0 ****  ****    0 ROOT
