@<TRIPOS>MOLECULE
737
   78    82     1     0     0
SMALL
bcc


@<TRIPOS>ATOM
      1 CX         -1.8430   -2.7530    1.4100 c         1 737      0.489600
      2 CY         -0.7780   -1.7360    1.8570 c3        1 737      0.039700
      3 CZ         -1.4920   -4.1760    1.6140 cc        1 737      0.282900
      4 OX         -2.9200   -2.4220    0.9130 o         1 737     -0.508100
      5 N05        -0.6470   -0.6410    0.9280 n         1 737     -0.548900
      6 C06        -1.1810   -1.2790    3.2690 c3        1 737     -0.087400
      7 C07        -0.1570   -0.3590    3.8970 c3        1 737     -0.094400
      8 C08        -0.5610   -0.0950    5.3500 c3        1 737      0.187800
      9 N09         0.2970    0.8550    6.0190 nh        1 737     -0.851200
     10 C10         0.2280    0.9810    7.4480 c2        1 737      0.757100
     11 N11        -0.9590    0.4920    8.0840 nh        1 737     -0.880800
     12 N12         1.1640    1.5260    8.1910 n2        1 737     -0.896100
     13 C13         0.0090   -0.7640   -0.2700 c         1 737      0.649100
     14 O14         0.5360   -1.8330   -0.6380 o         1 737     -0.621100
     15 C15         0.0250    0.4760   -1.1890 c3        1 737      0.016000
     16 N16         1.1930    1.3060   -1.0120 n         1 737     -0.364300
     17 C17         2.2190    1.3750   -1.9830 cc        1 737      0.506500
     18 N18         3.2800    2.1590   -1.8610 nd        1 737     -0.581300
     19 C19         3.4080    2.9460   -0.7410 cd        1 737      0.021600
     20 C20         2.4740    2.9790    0.2810 cc        1 737      0.010800
     21 C21         1.2740    2.1080    0.1460 c         1 737      0.681700
     22 N22         2.5290    3.8440    1.3760 nh        1 737     -0.690000
     23 C23         2.1070    0.5520   -3.2190 ca        1 737     -0.146900
     24 C24         2.0530    1.2020   -4.4580 ca        1 737     -0.093000
     25 C25         2.0010    0.4450   -5.6280 ca        1 737     -0.137000
     26 C26         2.0130   -0.9480   -5.5650 ca        1 737     -0.114000
     27 C27         2.0750   -1.6000   -4.3290 ca        1 737     -0.078300
     28 C28         2.1230   -0.8440   -3.1520 ca        1 737     -0.101000
     29 C29         2.1030   -3.0790   -4.2570 c3        1 737     -0.057800
     30 O30         0.3550    2.0630    0.9930 o         1 737     -0.666500
     31 N31        -0.8610   -4.6410    2.7070 nd        1 737     -0.616000
     32 C32        -0.6850   -6.0000    2.5860 cd        1 737      0.328200
     33 C33        -1.1760   -6.5530    1.4030 cc        1 737     -0.274400
     34 S34        -1.8650   -5.3800    0.4570 ss        1 737      0.046700
     35 C35         3.8430    4.2870    1.8000 c3        1 737      0.236100
     36 C36         3.9580    4.5330    3.2760 ca        1 737     -0.146600
     37 C37         4.1490    5.8110    3.7520 ca        1 737     -0.097000
     38 C38         4.3210    6.0600    5.1330 ca        1 737     -0.128000
     39 C39         4.2990    5.0240    6.0320 ca        1 737     -0.099000
     40 C40         4.0980    3.6930    5.5860 ca        1 737     -0.147300
     41 C41         4.0710    2.5930    6.4910 ca        1 737     -0.071000
     42 C42         3.8600    1.3260    6.0080 ca        1 737     -0.268300
     43 C43         3.6750    1.1580    4.5990 ca        1 737      0.410200
     44 N44         3.6990    2.1450    3.7220 nb        1 737     -0.665000
     45 C45         3.9130    3.4280    4.1930 ca        1 737      0.400600
     46 HY          0.2190   -2.2720    1.9030 h1        1 737      0.095700
     47 H05        -0.9780    0.2550    1.2130 hn        1 737      0.346500
     48 H061       -1.2980   -2.2000    3.9010 hc        1 737      0.067700
     49 H062       -2.1780   -0.7660    3.2270 hc        1 737      0.067700
     50 H071       -0.0960    0.6080    3.3300 hc        1 737      0.059700
     51 H072        0.8570   -0.8370    3.8590 hc        1 737      0.059700
     52 H081       -1.6080    0.3280    5.3550 h1        1 737      0.042700
     53 H082       -0.5930   -1.0850    5.8930 h1        1 737      0.042700
     54 H09         1.2370    0.8490    5.6720 hn        1 737      0.399800
     55 H111       -1.7910    0.7290    7.5850 hn        1 737      0.394800
     56 H112       -1.0160    0.7600    9.0460 hn        1 737      0.394800
     57 H12         2.0120    1.7560    7.7190 hn        1 737      0.386400
     58 H151       -0.0220    0.0910   -2.2470 h1        1 737      0.094700
     59 H152       -0.8890    1.1090   -0.9950 h1        1 737      0.094700
     60 H19         4.3250    3.5610   -0.7300 h4        1 737      0.171000
     61 H22         1.9250    3.5600    2.1250 hn        1 737      0.424800
     62 H24         2.0620    2.3000   -4.5080 ha        1 737      0.145000
     63 H25         1.9560    0.9510   -6.6030 ha        1 737      0.136000
     64 H26         1.9740   -1.5390   -6.4930 ha        1 737      0.134000
     65 H28         2.1570   -1.3550   -2.1740 ha        1 737      0.169000
     66 H291        1.6100   -3.4410   -3.3200 hc        1 737      0.049033
     67 H292        1.5770   -3.5330   -5.1330 hc        1 737      0.049033
     68 H293        3.1620   -3.4410   -4.2580 hc        1 737      0.049033
     69 H32        -0.1880   -6.5450    3.3970 h4        1 737      0.048100
     70 H33        -1.1120   -7.6060    1.1380 h4        1 737      0.186000
     71 H351        4.0530    5.2470    1.2410 h1        1 737      0.055200
     72 H352        4.6470    3.5460    1.5070 h1        1 737      0.055200
     73 H37         4.1720    6.6630    3.0540 ha        1 737      0.142000
     74 H38         4.4710    7.0960    5.4730 ha        1 737      0.140000
     75 H39         4.4330    5.2050    7.1100 ha        1 737      0.141000
     76 H41         4.2180    2.7820    7.5660 ha        1 737      0.149000
     77 H42         3.8410    0.4470    6.6660 ha        1 737      0.151000
     78 H43         3.5020    0.1450    4.1870 h4        1 737      0.025100
@<TRIPOS>BOND
     1    1    2 1   
     2    1    3 1   
     3    1    4 2   
     4    2    5 1   
     5    2    6 1   
     6    2   46 1   
     7    3   31 2   
     8    3   34 1   
     9    5   13 1   
    10    5   47 1   
    11    6    7 1   
    12    6   48 1   
    13    6   49 1   
    14    7    8 1   
    15    7   50 1   
    16    7   51 1   
    17    8    9 1   
    18    8   52 1   
    19    8   53 1   
    20    9   10 1   
    21    9   54 1   
    22   10   11 1   
    23   10   12 2   
    24   11   55 1   
    25   11   56 1   
    26   12   57 1   
    27   13   14 2   
    28   13   15 1   
    29   15   16 1   
    30   15   58 1   
    31   15   59 1   
    32   16   17 1   
    33   16   21 1   
    34   17   18 2   
    35   17   23 1   
    36   18   19 1   
    37   19   20 2   
    38   19   60 1   
    39   20   21 1   
    40   20   22 1   
    41   21   30 2   
    42   22   35 1   
    43   22   61 1   
    44   23   24 ar  
    45   23   28 ar  
    46   24   25 ar  
    47   24   62 1   
    48   25   26 ar  
    49   25   63 1   
    50   26   27 ar  
    51   26   64 1   
    52   27   28 ar  
    53   27   29 1   
    54   28   65 1   
    55   29   66 1   
    56   29   67 1   
    57   29   68 1   
    58   31   32 1   
    59   32   33 2   
    60   32   69 1   
    61   33   34 1   
    62   33   70 1   
    63   35   36 1   
    64   35   71 1   
    65   35   72 1   
    66   36   37 ar  
    67   36   45 ar  
    68   37   38 ar  
    69   37   73 1   
    70   38   39 ar  
    71   38   74 1   
    72   39   40 ar  
    73   39   75 1   
    74   40   41 ar  
    75   40   45 ar  
    76   41   42 ar  
    77   41   76 1   
    78   42   43 ar  
    79   42   77 1   
    80   43   44 ar  
    81   43   78 1   
    82   44   45 ar  
@<TRIPOS>SUBSTRUCTURE
     1 737         1 TEMP              0 ****  ****    0 ROOT
