@<TRIPOS>MOLECULE
737
   82    86     1     0     0
SMALL
bcc


@<TRIPOS>ATOM
      1 CX          2.4790   -1.6630    1.3550 c         1 737      0.511600
      2 CY          3.1460   -0.9030    0.1790 c3        1 737      0.040500
      3 CZ          1.3570   -2.5180    1.0300 cc        1 737      0.118900
      4 OX          2.9020   -1.4780    2.5010 o         1 737     -0.517100
      5 N05         4.0400    0.1930    0.7010 n4        1 737     -0.683800
      6 C06         3.8930   -1.9020   -0.7250 c3        1 737     -0.080400
      7 C07         3.4100   -1.8400   -2.1700 c3        1 737     -0.107400
      8 C08         3.7020   -3.1830   -2.8510 c3        1 737      0.106800
      9 N09         3.2320   -3.2020   -4.2890 n4        1 737     -0.786000
     10 C10         3.5340   -4.5080   -4.9930 c2        1 737      0.612100
     11 N11         3.1820   -4.5150   -6.4590 n4        1 737     -0.821600
     12 N12         4.0310   -5.5770   -4.5200 n2        1 737     -0.576100
     13 C13         3.2810    1.4730    1.0180 c         1 737      0.536100
     14 O14         2.9010    2.1140    0.0560 o         1 737     -0.384100
     15 C15         3.0590    1.7870    2.5020 c3        1 737      0.027000
     16 N16         3.9670    2.7770    3.0190 n         1 737     -0.380300
     17 C17         3.5210    4.0310    3.5060 cc        1 737      0.646500
     18 N18         4.3620    4.9230    4.0440 nd        1 737     -0.577300
     19 C19         5.6730    4.6120    4.2160 cd        1 737      0.260600
     20 C20         6.2050    3.3820    3.8210 cc        1 737     -0.260200
     21 C21         5.3380    2.4250    3.1380 c         1 737      0.718700
     22 N22         7.5890    3.0260    4.0690 n4        1 737     -0.609800
     23 C23         2.0820    4.3760    3.4410 ca        1 737     -0.230900
     24 C24         1.1550    3.6590    4.2140 ca        1 737     -0.131000
     25 C25        -0.1720    4.0750    4.2420 ca        1 737     -0.111000
     26 C26        -0.5770    5.1950    3.5110 ca        1 737     -0.072000
     27 C27         0.3470    5.9180    2.7450 ca        1 737     -0.046300
     28 C28         1.6870    5.5090    2.7190 ca        1 737     -0.071000
     29 C29        -0.0800    7.1280    2.0060 c3        1 737     -0.077800
     30 O30         5.7280    1.3490    2.6220 o         1 737     -0.723500
     31 N31         0.9770   -2.8250   -0.2540 nd        1 737     -0.681000
     32 C32        -0.1270   -3.6070   -0.2070 cd        1 737      0.334200
     33 C33        -0.5860   -3.9010    1.1020 cc        1 737     -0.271400
     34 S34         0.3580   -3.2100    2.2170 ss        1 737      0.363700
     35 C35         7.8870    2.8360    5.5440 c3        1 737      0.204100
     36 C36         9.3120    3.1210    5.8560 ca        1 737     -0.268600
     37 C37        10.1220    2.1270    6.3730 ca        1 737     -0.038000
     38 C38        11.4280    2.4140    6.8170 ca        1 737     -0.143000
     39 C39        11.9160    3.7000    6.7510 ca        1 737     -0.028000
     40 C40        11.1210    4.7450    6.2160 ca        1 737     -0.150300
     41 C41        11.5920    6.0900    6.1490 ca        1 737     -0.037000
     42 C42        10.7800    7.0620    5.6190 ca        1 737     -0.234300
     43 C43         9.4900    6.6830    5.1340 ca        1 737      0.466200
     44 N44         9.0110    5.4480    5.1740 nb        1 737     -0.790000
     45 C45         9.8060    4.4650    5.7350 ca        1 737      0.410600
     46 HY          2.3200   -0.3910   -0.4070 hx        1 737      0.137700
     47 H05         4.7660    0.4080    0.0090 hn        1 737      0.481800
     48 H061        5.0040   -1.7330   -0.7010 hc        1 737      0.093200
     49 H062        3.7220   -2.9350   -0.3110 hc        1 737      0.093200
     50 H071        2.3040   -1.6330   -2.1970 hc        1 737      0.094700
     51 H072        3.9340   -1.0060   -2.7080 hc        1 737      0.094700
     52 H081        3.1540   -4.0020   -2.2960 hx        1 737      0.128200
     53 H082        4.8130   -3.3810   -2.8450 hx        1 737      0.128200
     54 H09         3.6890   -2.4200   -4.7850 hn        1 737      0.484800
     55 H111        3.4060   -5.4570   -6.8620 hn        1 737      0.519467
     56 H112        2.1730   -4.3470   -6.5990 hn        1 737      0.519467
     57 H12         4.3170   -5.7350   -3.5710 hn        1 737      0.544400
     58 H151        3.1530    0.8360    3.1130 h1        1 737      0.146700
     59 H152        1.9880    2.1660    2.5710 h1        1 737      0.146700
     60 H19         6.2850    5.4070    4.7070 h4        1 737      0.242000
     61 H22         7.8110    2.1610    3.5620 hn        1 737      0.469300
     62 H24         1.4780    2.8110    4.8350 ha        1 737      0.136000
     63 H25        -0.9040    3.5350    4.8650 ha        1 737      0.168000
     64 H26        -1.6290    5.5270    3.5530 ha        1 737      0.176000
     65 H28         2.4240    6.0940    2.1470 ha        1 737      0.157000
     66 H291        0.6260    7.3690    1.1730 hc        1 737      0.072700
     67 H292       -0.1090    8.0060    2.7030 hc        1 737      0.072700
     68 H293       -1.1050    6.9940    1.5780 hc        1 737      0.072700
     69 H32        -0.6160   -3.9530   -1.1270 h4        1 737      0.061100
     70 H33        -1.4740   -4.5180    1.2950 h4        1 737      0.239000
     71 H351        7.6060    1.7770    5.8070 hx        1 737      0.104200
     72 H352        7.2220    3.5460    6.1180 hx        1 737      0.104200
     73 H37         9.7460    1.0950    6.4730 ha        1 737      0.143000
     74 H38        12.0460    1.6010    7.2330 ha        1 737      0.174000
     75 H39        12.9300    3.9370    7.1200 ha        1 737      0.175000
     76 H41        12.6010    6.3260    6.5290 ha        1 737      0.176000
     77 H42        11.0940    8.1160    5.5590 ha        1 737      0.182000
     78 H43         8.8290    7.4540    4.6900 h4        1 737      0.035100
     79 H052        4.5130   -0.1220    1.5740 hn        1 737      0.481800
     80 H092        2.2110   -3.0380   -4.2920 hn        1 737      0.484800
     81 H113        3.7370   -3.8140   -6.9760 hn        1 737      0.519467
     82 H222        8.1910    3.7830    3.7030 hn        1 737      0.469300
@<TRIPOS>BOND
     1    1    2 1   
     2    1    3 1   
     3    1    4 2   
     4    2    5 1   
     5    2    6 1   
     6    2   46 1   
     7    3   31 2   
     8    3   34 1   
     9    5   13 1   
    10    5   47 1   
    11    5   79 1   
    12    6    7 1   
    13    6   48 1   
    14    6   49 1   
    15    7    8 1   
    16    7   50 1   
    17    7   51 1   
    18    8    9 1   
    19    8   52 1   
    20    8   53 1   
    21    9   10 1   
    22    9   54 1   
    23    9   80 1   
    24   10   11 1   
    25   10   12 2   
    26   11   55 1   
    27   11   56 1   
    28   11   81 1   
    29   12   57 1   
    30   13   14 2   
    31   13   15 1   
    32   15   16 1   
    33   15   58 1   
    34   15   59 1   
    35   16   17 1   
    36   16   21 1   
    37   17   18 2   
    38   17   23 1   
    39   18   19 1   
    40   19   20 2   
    41   19   60 1   
    42   20   21 1   
    43   20   22 1   
    44   21   30 2   
    45   22   35 1   
    46   22   61 1   
    47   22   82 1   
    48   23   24 ar  
    49   23   28 ar  
    50   24   25 ar  
    51   24   62 1   
    52   25   26 ar  
    53   25   63 1   
    54   26   27 ar  
    55   26   64 1   
    56   27   28 ar  
    57   27   29 1   
    58   28   65 1   
    59   29   66 1   
    60   29   67 1   
    61   29   68 1   
    62   31   32 1   
    63   32   33 2   
    64   32   69 1   
    65   33   34 1   
    66   33   70 1   
    67   35   36 1   
    68   35   71 1   
    69   35   72 1   
    70   36   37 ar  
    71   36   45 ar  
    72   37   38 ar  
    73   37   73 1   
    74   38   39 ar  
    75   38   74 1   
    76   39   40 ar  
    77   39   75 1   
    78   40   41 ar  
    79   40   45 ar  
    80   41   42 ar  
    81   41   76 1   
    82   42   43 ar  
    83   42   77 1   
    84   43   44 ar  
    85   43   78 1   
    86   44   45 ar  
@<TRIPOS>SUBSTRUCTURE
     1 737         1 TEMP              0 ****  ****    0 ROOT
