@<TRIPOS>MOLECULE
738
   34    36     1     0     0
SMALL
bcc


@<TRIPOS>ATOM
      1 F19        -0.0120    0.2440    0.2360 f         1 738     -0.133900
      2 C16         1.3330    0.1160    0.1400 ca        1 738      0.156900
      3 C18         2.0990    0.1520    1.3220 ca        1 738     -0.171000
      4 C21         3.4830    0.0340    1.2540 ca        1 738     -0.078000
      5 C20         4.1170   -0.1110    0.0190 ca        1 738     -0.151000
      6 C17         3.3660   -0.1410   -1.1510 ca        1 738     -0.053000
      7 C14         1.9680   -0.0370   -1.1100 ca        1 738     -0.180600
      8 C13         1.2560   -0.0640   -2.4170 c         1 738      0.677700
      9 O15         1.7690    0.4160   -3.4470 o         1 738     -0.585100
     10 N10         0.0180   -0.6920   -2.4690 ns        1 738     -0.427100
     11 C5         -0.7510   -0.7920   -3.6180 cc        1 738      0.066500
     12 C2         -2.0200   -1.3980   -3.6610 cd        1 738     -0.125000
     13 C6         -2.6670   -1.9690   -2.5510 ch        1 738      0.264800
     14 N11        -3.2030   -2.4430   -1.6320 n1        1 738     -0.387800
     15 S7         -0.3050   -0.2300   -5.1500 ss        1 738      0.147200
     16 C3         -1.7140   -0.7530   -5.8770 cc        1 738     -0.173400
     17 C8         -2.0210   -0.6030   -7.3110 c3        1 738      0.004900
     18 C12        -3.5040   -0.8030   -7.5810 c3        1 738     -0.072400
     19 C9         -4.0430   -2.0220   -6.8610 c3        1 738     -0.074400
     20 C4         -3.8990   -1.8970   -5.3540 c3        1 738     -0.020100
     21 C1         -2.5720   -1.3670   -4.9810 cd        1 738     -0.037300
     22 H18         1.5890    0.2750    2.2890 ha        1 738      0.158000
     23 H21         4.0780    0.0590    2.1800 ha        1 738      0.145000
     24 H20         5.2130   -0.1980   -0.0320 ha        1 738      0.147000
     25 H17         3.8600   -0.2360   -2.1330 ha        1 738      0.164000
     26 HN10       -0.3960   -1.0270   -1.6240 hn        1 738      0.343500
     27 H81        -1.7110    0.4130   -7.6750 hc        1 738      0.049200
     28 H82        -1.4320   -1.3630   -7.8970 hc        1 738      0.049200
     29 H121       -4.0690    0.1060   -7.2460 hc        1 738      0.044200
     30 H122       -3.6640   -0.9150   -8.6840 hc        1 738      0.044200
     31 H91        -5.1260   -2.1610   -7.1170 hc        1 738      0.044200
     32 H92        -3.4930   -2.9340   -7.2140 hc        1 738      0.044200
     33 H41        -4.6890   -1.2020   -4.9560 hc        1 738      0.059200
     34 H42        -4.0630   -2.8980   -4.8730 hc        1 738      0.059200
@<TRIPOS>BOND
     1    1    2 1   
     2    2    3 ar  
     3    2    7 ar  
     4    3    4 ar  
     5    3   22 1   
     6    4    5 ar  
     7    4   23 1   
     8    5    6 ar  
     9    5   24 1   
    10    6    7 ar  
    11    6   25 1   
    12    7    8 1   
    13    8    9 2   
    14    8   10 1   
    15   10   11 1   
    16   10   26 1   
    17   11   12 2   
    18   11   15 1   
    19   12   13 1   
    20   12   21 1   
    21   13   14 3   
    22   15   16 1   
    23   16   17 1   
    24   16   21 2   
    25   17   18 1   
    26   17   27 1   
    27   17   28 1   
    28   18   19 1   
    29   18   29 1   
    30   18   30 1   
    31   19   20 1   
    32   19   31 1   
    33   19   32 1   
    34   20   21 1   
    35   20   33 1   
    36   20   34 1   
@<TRIPOS>SUBSTRUCTURE
     1 738         1 TEMP              0 ****  ****    0 ROOT
