@<TRIPOS>MOLECULE
738
   35    37     1     0     0
SMALL
bcc


@<TRIPOS>ATOM
      1 F19         0.0570    0.8490    0.2200 f         1 738     -0.137900
      2 C16         1.0950    0.0620   -0.1540 ca        1 738      0.167900
      3 C18         1.6500   -0.8340    0.7740 ca        1 738     -0.146000
      4 C21         2.7280   -1.6340    0.4010 ca        1 738     -0.032000
      5 C20         3.2680   -1.5420   -0.8840 ca        1 738     -0.134000
      6 C17         2.7320   -0.6500   -1.8070 ca        1 738     -0.029000
      7 C14         1.6310    0.1560   -1.4620 ca        1 738     -0.235600
      8 C13         1.1580    1.0910   -2.4810 c         1 738      0.588700
      9 O15         1.8170    1.7060   -3.3060 o         1 738     -0.418100
     10 N10        -0.3520    1.3430   -2.5560 n4        1 738     -0.496200
     11 C5         -0.9740    0.6100   -3.6240 cc        1 738     -0.167500
     12 C2         -1.6870   -0.5950   -3.4390 cd        1 738      0.027000
     13 C6         -1.8590   -1.2310   -2.1930 ch        1 738      0.203800
     14 N11        -2.0060   -1.7660   -1.1700 n1        1 738     -0.286800
     15 S7         -0.9880    1.0750   -5.2380 ss        1 738      0.242200
     16 C3         -1.8780   -0.2260   -5.7270 cc        1 738     -0.080400
     17 C8         -2.2780   -0.4990   -7.1230 c3        1 738     -0.024100
     18 C12        -3.4140   -1.5070   -7.1840 c3        1 738     -0.077400
     19 C9         -3.1510   -2.6990   -6.2890 c3        1 738     -0.080400
     20 C4         -3.0340   -2.2940   -4.8300 c3        1 738     -0.030100
     21 C1         -2.2120   -1.0770   -4.6670 cd        1 738     -0.051300
     22 H18         1.2240   -0.8920    1.7890 ha        1 738      0.185000
     23 H21         3.1590   -2.3410    1.1320 ha        1 738      0.175000
     24 H20         4.1270   -2.1720   -1.1690 ha        1 738      0.174000
     25 H17         3.1700   -0.5640   -2.8160 ha        1 738      0.169000
     26 HN10       -0.7940    1.0700   -1.6630 hn        1 738      0.468300
     27 H81        -2.5910    0.4500   -7.6360 hc        1 738      0.075700
     28 H82        -1.3890   -0.9060   -7.6820 hc        1 738      0.075700
     29 H121       -3.5330   -1.8510   -8.2450 hc        1 738      0.064700
     30 H122       -4.3730   -1.0110   -6.8790 hc        1 738      0.064700
     31 H91        -2.2070   -3.2110   -6.6130 hc        1 738      0.062700
     32 H92        -3.9870   -3.4390   -6.3950 hc        1 738      0.062700
     33 H41        -4.0590   -2.0920   -4.4100 hc        1 738      0.075700
     34 H42        -2.5920   -3.1390   -4.2360 hc        1 738      0.075700
     35 H102       -0.5100    2.3490   -2.7070 hn        1 738      0.468300
@<TRIPOS>BOND
     1    1    2 1   
     2    2    3 ar  
     3    2    7 ar  
     4    3    4 ar  
     5    3   22 1   
     6    4    5 ar  
     7    4   23 1   
     8    5    6 ar  
     9    5   24 1   
    10    6    7 ar  
    11    6   25 1   
    12    7    8 1   
    13    8    9 2   
    14    8   10 1   
    15   10   11 1   
    16   10   26 1   
    17   10   35 1   
    18   11   12 2   
    19   11   15 1   
    20   12   13 1   
    21   12   21 1   
    22   13   14 3   
    23   15   16 1   
    24   16   17 1   
    25   16   21 2   
    26   17   18 1   
    27   17   27 1   
    28   17   28 1   
    29   18   19 1   
    30   18   29 1   
    31   18   30 1   
    32   19   20 1   
    33   19   31 1   
    34   19   32 1   
    35   20   21 1   
    36   20   33 1   
    37   20   34 1   
@<TRIPOS>SUBSTRUCTURE
     1 738         1 TEMP              0 ****  ****    0 ROOT
