@<TRIPOS>MOLECULE
738
   34    36     1     0     0
SMALL
bcc


@<TRIPOS>ATOM
      1 F19        -0.0160    0.1350    0.2920 f         1 738     -0.133900
      2 C16         1.3320    0.0640    0.1750 ca        1 738      0.156900
      3 C18         2.1130    0.0920    1.3470 ca        1 738     -0.171000
      4 C21         3.4990    0.0310    1.2570 ca        1 738     -0.078000
      5 C20         4.1210   -0.0490    0.0100 ca        1 738     -0.151000
      6 C17         3.3550   -0.0710   -1.1510 ca        1 738     -0.053000
      7 C14         1.9550   -0.0240   -1.0880 ca        1 738     -0.180600
      8 C13         1.2260   -0.0380   -2.3850 c         1 738      0.677700
      9 O15         1.7060    0.4950   -3.4070 o         1 738     -0.585100
     10 N10         0.0130   -0.7120   -2.4430 n         1 738     -0.427100
     11 C5         -0.7670   -0.8050   -3.5840 cc        1 738      0.066500
     12 C2         -2.0130   -1.4580   -3.6310 cd        1 738     -0.125000
     13 C6         -2.6220   -2.0880   -2.5310 ch        1 738      0.264800
     14 N11        -3.1270   -2.6120   -1.6210 n1        1 738     -0.387800
     15 S7         -0.3640   -0.1780   -5.1030 ss        1 738      0.147200
     16 C3         -1.7620   -0.7320   -5.8280 cc        1 738     -0.173400
     17 C8         -2.0950   -0.5490   -7.2530 c3        1 738      0.004900
     18 C12        -3.5720   -0.7970   -7.5100 c3        1 738     -0.072400
     19 C9         -4.0540   -2.0590   -6.8240 c3        1 738     -0.074400
     20 C4         -3.8950   -1.9760   -5.3160 c3        1 738     -0.020100
     21 C1         -2.5840   -1.4070   -4.9420 cd        1 738     -0.037300
     22 H18         1.6110    0.1640    2.3240 ha        1 738      0.158000
     23 H21         4.1050    0.0500    2.1760 ha        1 738      0.145000
     24 H20         5.2190   -0.0910   -0.0570 ha        1 738      0.147000
     25 H17         3.8390   -0.1160   -2.1410 ha        1 738      0.164000
     26 HN10       -0.3760   -1.0890   -1.6040 hn        1 738      0.343500
     27 H81        -1.8290    0.4900   -7.5880 hc        1 738      0.049200
     28 H82        -1.4860   -1.2660   -7.8700 hc        1 738      0.049200
     29 H121       -4.1670    0.0780   -7.1390 hc        1 738      0.044200
     30 H122       -3.7430   -0.8810   -8.6150 hc        1 738      0.044200
     31 H91        -5.1340   -2.2320   -7.0700 hc        1 738      0.044200
     32 H92        -3.4740   -2.9370   -7.2120 hc        1 738      0.044200
     33 H41        -4.7050   -1.3250   -4.8850 hc        1 738      0.059200
     34 H42        -4.0130   -2.9970   -4.8640 hc        1 738      0.059200
@<TRIPOS>BOND
     1    1    2 1   
     2    2    3 ar  
     3    2    7 ar  
     4    3    4 ar  
     5    3   22 1   
     6    4    5 ar  
     7    4   23 1   
     8    5    6 ar  
     9    5   24 1   
    10    6    7 ar  
    11    6   25 1   
    12    7    8 1   
    13    8    9 2   
    14    8   10 1   
    15   10   11 1   
    16   10   26 1   
    17   11   12 2   
    18   11   15 1   
    19   12   13 1   
    20   12   21 1   
    21   13   14 3   
    22   15   16 1   
    23   16   17 1   
    24   16   21 2   
    25   17   18 1   
    26   17   27 1   
    27   17   28 1   
    28   18   19 1   
    29   18   29 1   
    30   18   30 1   
    31   19   20 1   
    32   19   31 1   
    33   19   32 1   
    34   20   21 1   
    35   20   33 1   
    36   20   34 1   
@<TRIPOS>SUBSTRUCTURE
     1 738         1 TEMP              0 ****  ****    0 ROOT
