@<TRIPOS>MOLECULE
738
   34    30     1     0     0
SMALL
bcc


@<TRIPOS>ATOM
      1 F19         4.4690    0.7830    1.7180 f         1 738     -0.084000
      2 C16         3.8130    0.3380    2.8000 c2        1 738      0.147000
      3 C18         4.4840    0.2060    4.0180 c2        1 738     -0.173000
      4 C21         3.8350   -0.3380    5.1120 c1        1 738     -0.080000
      5 C20         2.5250   -0.7510    5.0010 c1        1 738     -0.113000
      6 C17         1.8560   -0.6200    3.7910 c1        1 738     -0.113000
      7 C14         2.5090   -0.0730    2.6890 c1        1 738     -0.164000
      8 C13         1.7890    0.0180    1.3410 c1        1 738      0.352000
      9 O15         2.3680    0.4520    0.3740 o         1 738     -0.321000
     10 N10         0.4640   -0.3460    1.2450 n2        1 738     -0.290000
     11 C5         -0.2340   -0.2070   -0.0110 c2        1 738     -0.196000
     12 C2         -1.3160    0.7580   -0.2960 c1        1 738     -0.126000
     13 C6         -1.8000    1.8540    0.6400 c1        1 738     -0.064000
     14 N11        -2.1700    2.6900    1.3570 n1        1 738     -0.065000
     15 S7         -0.0870   -1.1880   -1.3000 ss        1 738      0.688000
     16 C3         -1.1390   -0.7420   -2.3480 c1        1 738     -0.435000
     17 C8         -1.4960   -1.1930   -3.7960 c2        1 738     -0.081000
     18 C12        -2.3780   -0.3390   -4.5340 c3        1 738     -0.151000
     19 C9         -3.4630    0.2930   -3.7950 c3        1 738     -0.153000
     20 C4         -3.0970    1.0260   -2.6020 c3        1 738     -0.106000
     21 C1         -1.9050    0.4430   -1.7660 c2        1 738     -0.029000
     22 H18         5.4260    0.5020    4.0990 ha        1 738      0.158000
     23 H21         4.3210   -0.4320    5.9930 ha        1 738      0.145000
     24 H20         2.0840   -1.1200    5.7440 ha        1 738      0.146500
     25 H17         0.9420   -0.9080    3.7140 ha        1 738      0.146500
     26 HN10        0.0450   -0.7270    1.9590 hn        1 738      0.251000
     27 H81        -1.9170   -2.0990   -3.7410 ha        1 738      0.089500
     28 H82        -0.6610   -1.2750   -4.3030 ha        1 738      0.089500
     29 H121       -2.7930   -0.8910   -5.2760 hc        1 738      0.084500
     30 H122       -1.8070    0.4090   -4.9690 hc        1 738      0.084500
     31 H91        -3.8990    0.9680   -4.4330 hc        1 738      0.084000
     32 H92        -4.0710   -0.4230   -3.5140 hc        1 738      0.084000
     33 H41        -3.8630    1.0230   -2.0300 hc        1 738      0.098500
     34 H42        -2.8340    1.9090   -2.8830 hc        1 738      0.098500
@<TRIPOS>BOND
     1    1    2 1   
     2    2    3 1   
     3    2    7 1   
     4    3    4 1   
     5    3   22 1   
     6    4   23 1   
     7    5    6 1   
     8    5   24 1   
     9    6   25 1   
    10    8    9 1   
    11   10   11 1   
    12   10   26 1   
    13   11   12 1   
    14   11   15 1   
    15   12   21 1   
    16   13   14 1   
    17   15   16 1   
    18   16   21 1   
    19   17   18 1   
    20   17   27 1   
    21   17   28 1   
    22   18   19 1   
    23   18   29 1   
    24   18   30 1   
    25   19   20 1   
    26   19   31 1   
    27   19   32 1   
    28   20   21 1   
    29   20   33 1   
    30   20   34 1   
@<TRIPOS>SUBSTRUCTURE
     1 738         1 TEMP              0 ****  ****    0 ROOT
