@<TRIPOS>MOLECULE
738
   34    36     1     0     0
SMALL
bcc


@<TRIPOS>ATOM
      1 F19         0.0640    2.2030   -2.1240 f         1 738     -0.133900
      2 C16         0.5300    3.0330   -1.1610 ca        1 738      0.156900
      3 C18         0.5410    4.4200   -1.4130 ca        1 738     -0.171000
      4 C21         1.0220    5.2950   -0.4460 ca        1 738     -0.078000
      5 C20         1.5050    4.8070    0.7690 ca        1 738     -0.151000
      6 C17         1.5020    3.4390    1.0210 ca        1 738     -0.053000
      7 C14         1.0100    2.5350    0.0690 ca        1 738     -0.180600
      8 C13         1.0650    1.0910    0.4260 c         1 738      0.677700
      9 O15         1.9820    0.6300    1.1350 o         1 738     -0.585100
     10 N10         0.0290    0.2740   -0.0090 n         1 738     -0.427100
     11 C5         -0.0480   -1.0840    0.2530 cc        1 738      0.066500
     12 C2         -1.0810   -1.9170   -0.2180 cd        1 738     -0.125000
     13 C6         -2.1540   -1.4790   -1.0140 ch        1 738      0.264800
     14 N11        -3.0440   -1.1170   -1.6720 n1        1 738     -0.387800
     15 S7          1.0550   -1.9690    1.1820 ss        1 738      0.147200
     16 C3          0.2310   -3.4090    0.9960 cc        1 738     -0.173400
     17 C8          0.6400   -4.6910    1.5980 c3        1 738      0.004900
     18 C12        -0.0630   -5.8620    0.9300 c3        1 738     -0.072400
     19 C9         -1.5450   -5.5990    0.7570 c3        1 738     -0.074400
     20 C4         -1.8030   -4.3900   -0.1260 c3        1 738     -0.020100
     21 C1         -0.9060   -3.2680    0.2190 cd        1 738     -0.037300
     22 H18         0.1660    4.7920   -2.3780 ha        1 738      0.158000
     23 H21         1.0250    6.3780   -0.6450 ha        1 738      0.145000
     24 H20         1.8910    5.5030    1.5290 ha        1 738      0.147000
     25 H17         1.8990    3.0420    1.9710 ha        1 738      0.164000
     26 HN10       -0.6700    0.6520   -0.6150 hn        1 738      0.343500
     27 H81         1.7520   -4.8280    1.5120 hc        1 738      0.049200
     28 H82         0.3880   -4.6830    2.6940 hc        1 738      0.049200
     29 H121        0.4000   -6.0520   -0.0730 hc        1 738      0.044200
     30 H122        0.0860   -6.7820    1.5520 hc        1 738      0.044200
     31 H91        -2.0120   -5.4320    1.7630 hc        1 738      0.044200
     32 H92        -2.0360   -6.4980    0.3020 hc        1 738      0.044200
     33 H41        -2.8740   -4.0700   -0.0280 hc        1 738      0.059200
     34 H42        -1.6350   -4.6660   -1.2030 hc        1 738      0.059200
@<TRIPOS>BOND
     1    1    2 1   
     2    2    3 ar  
     3    2    7 ar  
     4    3    4 ar  
     5    3   22 1   
     6    4    5 ar  
     7    4   23 1   
     8    5    6 ar  
     9    5   24 1   
    10    6    7 ar  
    11    6   25 1   
    12    7    8 1   
    13    8    9 2   
    14    8   10 1   
    15   10   11 1   
    16   10   26 1   
    17   11   12 2   
    18   11   15 1   
    19   12   13 1   
    20   12   21 1   
    21   13   14 3   
    22   15   16 1   
    23   16   17 1   
    24   16   21 2   
    25   17   18 1   
    26   17   27 1   
    27   17   28 1   
    28   18   19 1   
    29   18   29 1   
    30   18   30 1   
    31   19   20 1   
    32   19   31 1   
    33   19   32 1   
    34   20   21 1   
    35   20   33 1   
    36   20   34 1   
@<TRIPOS>SUBSTRUCTURE
     1 738         1 TEMP              0 ****  ****    0 ROOT
