@<TRIPOS>MOLECULE
739
   75    75     1     0     0
SMALL
bcc


@<TRIPOS>ATOM
      1 CBC         2.1040    4.6760   -0.9090 c3        1 739     -0.065300
      2 SCC         1.1260    6.1460   -1.0210 sh        1 739     -0.327900
      3 CC          4.5820    4.0640   -0.7330 c3        1 739      0.076800
      4 NC          3.7550    5.7200   -2.4600 n4        1 739     -0.867600
      5 CAC         3.5440    5.1440   -1.0980 c3        1 739      0.123500
      6 NI          4.3860    2.7460   -1.3870 n4        1 739     -0.780000
      7 CAI         5.2380    1.6630   -0.7690 c3        1 739      0.126500
      8 CBI         4.5560    0.9310    0.4060 c3        1 739     -0.096700
      9 CCI         4.5800    1.7590    1.6720 c3        1 739     -0.114100
     10 CDI         3.1430    0.4610    0.0850 c3        1 739     -0.087400
     11 CEI         2.7240   -0.6830    0.9770 c3        1 739     -0.101100
     12 CI          5.6660    0.6120   -1.8190 c3        1 739      0.113400
     13 O'F         6.2370    1.3230   -2.9180 os        1 739     -0.463600
     14 CAF         7.0440    0.5140   -3.7780 c3        1 739      0.095100
     15 CBF         6.2070   -0.3880   -4.6850 c3        1 739     -0.068100
     16 CCF         5.9310   -1.7080   -4.0580 ca        1 739     -0.136300
     17 CDF         4.6140   -2.0990   -3.7930 ca        1 739     -0.130000
     18 CEF         6.9820   -2.5950   -3.7900 ca        1 739     -0.130000
     19 CFF         4.3510   -3.3610   -3.2620 ca        1 739     -0.114000
     20 CGF         6.7170   -3.8540   -3.2550 ca        1 739     -0.114000
     21 CHF         5.4020   -4.2390   -2.9900 ca        1 739     -0.098000
     22 CF          7.8400    1.5160   -4.6170 c         1 739      0.542100
     23 OF          9.0580    1.5520   -4.6970 o         1 739     -0.396100
     24 NM          7.0520    2.4950   -5.4270 n4        1 739     -0.677800
     25 CAM         7.2320    3.9100   -4.9450 c3        1 739      0.044500
     26 CBM         7.1750    4.9530   -6.0660 c3        1 739     -0.060400
     27 CCM         8.3220    4.8950   -7.0480 c3        1 739     -0.336600
     28 SDM         7.8490    4.2130   -8.5660 s6        1 739      1.350000
     29 ODM         7.5670    2.8580   -8.2460 o         1 739     -0.663300
     30 OEM         6.7950    4.9550   -9.0890 o         1 739     -0.663300
     31 CEM         9.2460    4.3540   -9.4490 c3        1 739     -0.408300
     32 CM          6.1250    4.2620   -3.9310 c         1 739      0.912600
     33 OXT         4.9680    3.7270   -4.0430 o         1 739     -0.841800
     34 O           6.3630    5.0730   -2.9980 o         1 739     -0.841800
     35 HBC1        2.0040    4.2060    0.1020 h1        1 739      0.096200
     36 HBC2        1.7890    3.9240   -1.6730 h1        1 739      0.096200
     37 HCC        -0.0800    5.6250   -1.2470 hs        1 739      0.271800
     38 HCC1        5.6240    4.4310   -1.0100 hx        1 739      0.147700
     39 HCC2        4.5350    3.9260    0.3890 hx        1 739      0.147700
     40 HNC1        4.7080    6.1300   -2.5190 hn        1 739      0.487467
     41 HNC2        3.7070    4.9850   -3.1900 hn        1 739      0.487467
     42 HAC         3.7320    5.9940   -0.3580 hx        1 739      0.152700
     43 HNI         4.6490    2.8310   -2.3990 hn        1 739      0.472300
     44 HAI         6.1770    2.1720   -0.3920 hx        1 739      0.117700
     45 HBI         5.1950    0.0140    0.5890 hc        1 739      0.107700
     46 HCI1        5.5740    2.2450    1.8230 hc        1 739      0.058700
     47 HCI2        4.3870    1.0950    2.5530 hc        1 739      0.058700
     48 HCI3        3.7820    2.5420    1.6670 hc        1 739      0.058700
     49 HDI1        3.0820    0.1250   -0.9840 hc        1 739      0.033700
     50 HDI2        2.4170    1.3080    0.2190 hc        1 739      0.033700
     51 HEI1        1.6820   -0.9980    0.7260 hc        1 739      0.060700
     52 HEI2        2.7510   -0.3800    2.0520 hc        1 739      0.060700
     53 HEI3        3.4000   -1.5620    0.8410 hc        1 739      0.060700
     54 HI1         6.4260   -0.0650   -1.3430 h1        1 739      0.092200
     55 HI2         4.8020    0.0010   -2.1970 h1        1 739      0.092200
     56 HAF         7.7830   -0.0880   -3.1720 h1        1 739      0.122700
     57 HBF1        6.7680   -0.5600   -5.6460 hc        1 739      0.078700
     58 HBF2        5.2440    0.1330   -4.9370 hc        1 739      0.078700
     59 HDF         3.7780   -1.4250   -4.0320 ha        1 739      0.131000
     60 HEF         8.0190   -2.3100   -4.0240 ha        1 739      0.131000
     61 HFF         3.3120   -3.6730   -3.0740 ha        1 739      0.156000
     62 HGF         7.5460   -4.5510   -3.0550 ha        1 739      0.156000
     63 HHF         5.1920   -5.2410   -2.5810 ha        1 739      0.161000
     64 HNM         7.3500    2.4180   -6.4210 hn        1 739      0.493800
     65 HAM         8.2380    3.9780   -4.4310 hx        1 739      0.130700
     66 HBM1        7.1850    5.9510   -5.5420 hc        1 739      0.097700
     67 HBM2        6.1930    4.8820   -6.6120 hc        1 739      0.097700
     68 HCM1        8.7030    5.9450   -7.1940 h1        1 739      0.129200
     69 HCM2        9.1880    4.3420   -6.6000 h1        1 739      0.129200
     70 HEM1       10.1760    4.5890   -8.8710 h1        1 739      0.153367
     71 HEM2        9.1820    5.1560  -10.2380 h1        1 739      0.153367
     72 HEM3        9.4910    3.4120  -10.0160 h1        1 739      0.153367
     73 HC3         3.0320    6.4350   -2.6330 hn        1 739      0.487467
     74 HI21        3.4020    2.4650   -1.3270 hn        1 739      0.472300
     75 HM2         6.0460    2.2650   -5.3630 hn        1 739      0.493800
@<TRIPOS>BOND
     1    1    2 1   
     2    1    5 1   
     3    1   35 1   
     4    1   36 1   
     5    2   37 1   
     6    3    5 1   
     7    3    6 1   
     8    3   38 1   
     9    3   39 1   
    10    4    5 1   
    11    4   40 1   
    12    4   41 1   
    13    4   73 1   
    14    5   42 1   
    15    6    7 1   
    16    6   43 1   
    17    6   74 1   
    18    7    8 1   
    19    7   12 1   
    20    7   44 1   
    21    8    9 1   
    22    8   10 1   
    23    8   45 1   
    24    9   46 1   
    25    9   47 1   
    26    9   48 1   
    27   10   11 1   
    28   10   49 1   
    29   10   50 1   
    30   11   51 1   
    31   11   52 1   
    32   11   53 1   
    33   12   13 1   
    34   12   54 1   
    35   12   55 1   
    36   13   14 1   
    37   14   15 1   
    38   14   22 1   
    39   14   56 1   
    40   15   16 1   
    41   15   57 1   
    42   15   58 1   
    43   16   17 ar  
    44   16   18 ar  
    45   17   19 ar  
    46   17   59 1   
    47   18   20 ar  
    48   18   60 1   
    49   19   21 ar  
    50   19   61 1   
    51   20   21 ar  
    52   20   62 1   
    53   21   63 1   
    54   22   23 2   
    55   22   24 1   
    56   24   25 1   
    57   24   64 1   
    58   24   75 1   
    59   25   26 1   
    60   25   32 1   
    61   25   65 1   
    62   26   27 1   
    63   26   66 1   
    64   26   67 1   
    65   27   28 1   
    66   27   68 1   
    67   27   69 1   
    68   28   29 2   
    69   28   30 2   
    70   28   31 1   
    71   31   70 1   
    72   31   71 1   
    73   31   72 1   
    74   32   33 1   
    75   32   34 1   
@<TRIPOS>SUBSTRUCTURE
     1 739         1 TEMP              0 ****  ****    0 ROOT
