@<TRIPOS>MOLECULE
739
   75    75     1     0     0
SMALL
bcc


@<TRIPOS>ATOM
      1 CBC         2.6560    4.2250    0.0750 c3        1 739     -0.067300
      2 SCC         1.6300    5.6500    0.2850 sh        1 739     -0.327900
      3 CC          4.8610    3.6190   -1.0690 c3        1 739      0.085800
      4 NC          3.0660    4.9740   -2.2670 nz        1 739     -0.844600
      5 CAC         3.7040    4.6320   -0.9570 c3        1 739      0.117500
      6 NI          4.4670    2.1890   -1.1410 ny        1 739     -0.761000
      7 CAI         5.6430    1.2790   -1.4220 c3        1 739      0.081500
      8 CBI         6.3520    0.7820   -0.1500 c3        1 739     -0.091700
      9 CCI         7.2290    1.8610    0.4490 c3        1 739     -0.113100
     10 CDI         5.4010    0.2070    0.8920 c3        1 739     -0.089400
     11 CEI         6.1140   -0.7430    1.8250 c3        1 739     -0.100100
     12 CI          5.2060    0.0610   -2.2770 c3        1 739      0.100400
     13 O'F         4.2840    0.4210   -3.2880 os        1 739     -0.409600
     14 CAF         4.8400    0.7950   -4.5530 c3        1 739      0.081100
     15 CBF         3.9470    0.1940   -5.6430 c3        1 739     -0.025100
     16 CCF         4.3830   -1.1810   -6.0050 ca        1 739     -0.128300
     17 CDF         3.5540   -2.2760   -5.7360 ca        1 739     -0.123000
     18 CEF         5.6070   -1.3850   -6.6540 ca        1 739     -0.123000
     19 CFF         3.9470   -3.5600   -6.1120 ca        1 739     -0.117500
     20 CGF         5.9980   -2.6690   -7.0260 ca        1 739     -0.117500
     21 CHF         5.1680   -3.7590   -6.7560 ca        1 739     -0.102000
     22 CF          4.8030    2.3280   -4.5990 c         1 739      0.676100
     23 OF          4.1220    2.9750   -3.7600 o         1 739     -0.753100
     24 NM          5.5410    3.0090   -5.5340 ns        1 739     -0.536900
     25 CAM         5.7970    4.4230   -5.3570 c3        1 739     -0.021300
     26 CBM         7.0860    4.9030   -6.0430 c3        1 739     -0.060400
     27 CCM         8.2580    4.9100   -5.0840 c3        1 739     -0.325600
     28 SDM         8.4850    3.4770   -4.1740 s6        1 739      1.336000
     29 ODM         7.5970    3.5180   -3.0580 o         1 739     -0.696300
     30 OEM         8.2670    2.3470   -4.9790 o         1 739     -0.696300
     31 CEM        10.0680    3.6450   -3.7060 c3        1 739     -0.398300
     32 CM          4.5920    5.2780   -5.7550 c         1 739      0.657100
     33 OXT         4.2800    5.5470   -7.0350 oh        1 739     -0.513100
     34 O           3.8380    5.7790   -4.9110 o         1 739     -0.562000
     35 HBC1        2.0600    3.3360   -0.2440 h1        1 739      0.098200
     36 HBC2        3.1740    3.9680    1.0350 h1        1 739      0.098200
     37 HCC         0.5400    5.0970    0.8200 hs        1 739      0.275800
     38 HCC1        5.5020    3.8490   -1.9810 hx        1 739      0.147200
     39 HCC2        5.5150    3.7540   -0.1540 hx        1 739      0.147200
     40 HNC1        3.7730    5.3140   -2.9430 hn        1 739      0.485467
     41 HNC2        2.6190    4.1530   -2.6940 hn        1 739      0.485467
     42 HAC         4.1940    5.5980   -0.5910 hx        1 739      0.150700
     43 HNI         3.7990    2.0590   -1.9280 hn        1 739      0.464300
     44 HAI         6.3790    1.8920   -2.0350 hx        1 739      0.133700
     45 HBI         7.0270   -0.0540   -0.5050 hc        1 739      0.103700
     46 HCI1        6.6380    2.5680    1.0800 hc        1 739      0.056700
     47 HCI2        8.0000    1.3900    1.1110 hc        1 739      0.056700
     48 HCI3        7.7590    2.4390   -0.3480 hc        1 739      0.056700
     49 HDI1        4.5630   -0.3440    0.3890 hc        1 739      0.035700
     50 HDI2        4.9490    1.0360    1.5000 hc        1 739      0.035700
     51 HEI1        5.3980   -1.1330    2.5900 hc        1 739      0.060033
     52 HEI2        6.9500   -0.2260    2.3560 hc        1 739      0.060033
     53 HEI3        6.5350   -1.6120    1.2630 hc        1 739      0.060033
     54 HI1         6.1340   -0.4170   -2.6920 h1        1 739      0.104200
     55 HI2         4.6440   -0.6900   -1.6540 h1        1 739      0.104200
     56 HAF         5.9020    0.4350   -4.6620 h1        1 739      0.108700
     57 HBF1        3.9970    0.8510   -6.5530 hc        1 739      0.076700
     58 HBF2        2.8850    0.1880   -5.2790 hc        1 739      0.076700
     59 HDF         2.5840   -2.1250   -5.2390 ha        1 739      0.128000
     60 HEF         6.2580   -0.5290   -6.8850 ha        1 739      0.128000
     61 HFF         3.2870   -4.4170   -5.9070 ha        1 739      0.150500
     62 HGF         6.9580   -2.8240   -7.5430 ha        1 739      0.150500
     63 HHF         5.4740   -4.7730   -7.0580 ha        1 739      0.155000
     64 HNM         6.1400    2.4990   -6.1530 hn        1 739      0.362500
     65 HAM         5.9030    4.6140   -4.2350 h1        1 739      0.084700
     66 HBM1        7.3330    4.2690   -6.9390 hc        1 739      0.094700
     67 HBM2        6.9230    5.9490   -6.4230 hc        1 739      0.094700
     68 HCM1        8.1390    5.7900   -4.3920 h1        1 739      0.138200
     69 HCM2        9.1710    5.1590   -5.6970 h1        1 739      0.138200
     70 HEM1       10.3190    3.0190   -2.8050 h1        1 739      0.152700
     71 HEM2       10.8040    3.3210   -4.4930 h1        1 739      0.152700
     72 HEM3       10.3780    4.6860   -3.4250 h1        1 739      0.152700
     73 HC3         2.3470    5.7020   -2.1080 hn        1 739      0.485467
     74 HI21        4.0160    1.9010   -0.2670 hn        1 739      0.464300
     75 HM2         4.9020    5.1080   -7.6390 ho        1 739      0.454000
@<TRIPOS>BOND
     1    1    2 1   
     2    1    5 1   
     3    1   35 1   
     4    1   36 1   
     5    2   37 1   
     6    3    5 1   
     7    3    6 1   
     8    3   38 1   
     9    3   39 1   
    10    4    5 1   
    11    4   40 1   
    12    4   41 1   
    13    4   73 1   
    14    5   42 1   
    15    6    7 1   
    16    6   43 1   
    17    6   74 1   
    18    7    8 1   
    19    7   12 1   
    20    7   44 1   
    21    8    9 1   
    22    8   10 1   
    23    8   45 1   
    24    9   46 1   
    25    9   47 1   
    26    9   48 1   
    27   10   11 1   
    28   10   49 1   
    29   10   50 1   
    30   11   51 1   
    31   11   52 1   
    32   11   53 1   
    33   12   13 1   
    34   12   54 1   
    35   12   55 1   
    36   13   14 1   
    37   14   15 1   
    38   14   22 1   
    39   14   56 1   
    40   15   16 1   
    41   15   57 1   
    42   15   58 1   
    43   16   17 ar  
    44   16   18 ar  
    45   17   19 ar  
    46   17   59 1   
    47   18   20 ar  
    48   18   60 1   
    49   19   21 ar  
    50   19   61 1   
    51   20   21 ar  
    52   20   62 1   
    53   21   63 1   
    54   22   23 2   
    55   22   24 1   
    56   24   25 1   
    57   24   64 1   
    58   25   26 1   
    59   25   32 1   
    60   25   65 1   
    61   26   27 1   
    62   26   66 1   
    63   26   67 1   
    64   27   28 1   
    65   27   68 1   
    66   27   69 1   
    67   28   29 2   
    68   28   30 2   
    69   28   31 1   
    70   31   70 1   
    71   31   71 1   
    72   31   72 1   
    73   32   33 1   
    74   32   34 2   
    75   33   75 1   
@<TRIPOS>SUBSTRUCTURE
     1 739         1 TEMP              0 ****  ****    0 ROOT
