@<TRIPOS>MOLECULE
739
   75    75     1     0     0
SMALL
bcc


@<TRIPOS>ATOM
      1 CBC         1.6810    3.6710   -2.0820 c3        1 739     -0.066300
      2 SCC         0.4710    4.9550   -2.1950 sh        1 739     -0.322900
      3 CC          4.1940    3.3290   -1.8690 c3        1 739      0.052800
      4 NC          3.2890    5.2610   -3.1290 n4        1 739     -0.861600
      5 CAC         3.0400    4.3580   -1.9640 c3        1 739      0.135500
      6 NI          4.1520    2.4930   -0.6450 n4        1 739     -0.751000
      7 CAI         5.4580    1.7710   -0.3900 c3        1 739      0.125500
      8 CBI         5.4450    1.1080    1.0040 c3        1 739     -0.096700
      9 CCI         5.5030    2.1600    2.0920 c3        1 739     -0.120100
     10 CDI         4.2620    0.1700    1.1970 c3        1 739     -0.091400
     11 CEI         4.5200   -0.8310    2.2970 c3        1 739     -0.100100
     12 CI          5.7800    0.7330   -1.4770 c3        1 739      0.106400
     13 O'F         6.1120    1.4760   -2.6530 os        1 739     -0.443600
     14 CAF         6.6660    0.6740   -3.7030 c3        1 739      0.098100
     15 CBF         5.5770    0.2310   -4.6750 c3        1 739     -0.075100
     16 CCF         4.8530   -0.9690   -4.1740 ca        1 739     -0.127300
     17 CDF         3.5000   -0.8820   -3.8260 ca        1 739     -0.134500
     18 CEF         5.5030   -2.2070   -4.1060 ca        1 739     -0.134500
     19 CFF         2.8070   -2.0190   -3.4140 ca        1 739     -0.115500
     20 CGF         4.8090   -3.3420   -3.6890 ca        1 739     -0.115500
     21 CHF         3.4600   -3.2500   -3.3430 ca        1 739     -0.099000
     22 CF          7.7370    1.5710   -4.3360 c         1 739      0.538100
     23 OF          8.9070    1.5800   -3.9800 o         1 739     -0.406100
     24 NM          7.3520    2.4830   -5.4510 n4        1 739     -0.672800
     25 CAM         7.3520    3.9300   -5.0310 c3        1 739      0.036500
     26 CBM         7.4990    4.9040   -6.2030 c3        1 739     -0.063400
     27 CCM         8.8310    4.8590   -6.9150 c3        1 739     -0.337600
     28 SDM         8.7370    4.0300   -8.4290 s6        1 739      1.348000
     29 ODM         8.4870    2.6830   -8.0550 o         1 739     -0.664300
     30 OEM         7.7740    4.6370   -9.2280 o         1 739     -0.664300
     31 CEM        10.2790    4.2240   -9.0130 c3        1 739     -0.407300
     32 CM          6.0210    4.2640   -4.3210 c         1 739      0.908600
     33 OXT         4.9710    3.6110   -4.6230 o         1 739     -0.836800
     34 O           6.0050    5.1680   -3.4410 o         1 739     -0.836800
     35 HBC1        1.6480    2.9810   -2.9610 h1        1 739      0.095200
     36 HBC2        1.4910    3.0620   -1.1640 h1        1 739      0.095200
     37 HCC        -0.4600    4.3490   -2.9320 hs        1 739      0.268800
     38 HCC1        4.1860    2.6470   -2.7800 hx        1 739      0.163700
     39 HCC2        5.1910    3.8770   -1.8980 hx        1 739      0.163700
     40 HNC1        4.1580    5.8100   -2.9720 hn        1 739      0.492800
     41 HNC2        3.4620    4.6920   -3.9860 hn        1 739      0.492800
     42 HAC         3.0360    5.0160   -1.0380 hx        1 739      0.117700
     43 HNI         3.4020    1.7950   -0.7210 hn        1 739      0.453300
     44 HAI         6.2680    2.5650   -0.4100 hx        1 739      0.126700
     45 HBI         6.3970    0.5000    1.0580 hc        1 739      0.110700
     46 HCI1        6.3210    2.8950    1.8980 hc        1 739      0.062367
     47 HCI2        4.5350    2.7080    2.1950 hc        1 739      0.062367
     48 HCI3        5.7120    1.6650    3.0750 hc        1 739      0.062367
     49 HDI1        3.3420    0.7610    1.4520 hc        1 739      0.036700
     50 HDI2        4.0580   -0.3860    0.2430 hc        1 739      0.036700
     51 HEI1        4.6980   -0.3160    3.2720 hc        1 739      0.061367
     52 HEI2        5.4120   -1.4610    2.0610 hc        1 739      0.061367
     53 HEI3        3.6350   -1.5040    2.4120 hc        1 739      0.061367
     54 HI1         6.6630    0.1250   -1.1360 h1        1 739      0.091700
     55 HI2         4.9180    0.0500   -1.7090 h1        1 739      0.091700
     56 HAF         7.2120   -0.2230   -3.2840 h1        1 739      0.116700
     57 HBF1        4.8580    1.0820   -4.8370 hc        1 739      0.085200
     58 HBF2        6.0500   -0.0290   -5.6630 hc        1 739      0.085200
     59 HDF         2.9710    0.0780   -3.9160 ha        1 739      0.126500
     60 HEF         6.5590   -2.2940   -4.4060 ha        1 739      0.126500
     61 HFF         1.7360   -1.9520   -3.1660 ha        1 739      0.154500
     62 HGF         5.3230   -4.3170   -3.6500 ha        1 739      0.154500
     63 HHF         2.9080   -4.1510   -3.0290 ha        1 739      0.162000
     64 HNM         8.0230    2.3470   -6.2350 hn        1 739      0.493300
     65 HAM         8.2100    4.0770   -4.3090 hx        1 739      0.125700
     66 HBM1        6.6600    4.7530   -6.9390 hc        1 739      0.101200
     67 HBM2        7.3520    5.9270   -5.7500 hc        1 739      0.101200
     68 HCM1        9.1690    5.9220   -7.0730 h1        1 739      0.127700
     69 HCM2        9.6110    4.4130   -6.2450 h1        1 739      0.127700
     70 HEM1       10.6960    3.2700   -9.4420 h1        1 739      0.152033
     71 HEM2       10.3330    4.9680   -9.8560 h1        1 739      0.152033
     72 HEM3       11.0480    4.5650   -8.2730 h1        1 739      0.152033
     73 HC3         2.4680    5.8720   -3.2590 hn        1 739      0.492800
     74 HI21        3.9610    3.0790    0.1800 hn        1 739      0.453300
     75 HM2         6.4000    2.2600   -5.7850 hn        1 739      0.493300
@<TRIPOS>BOND
     1    1    2 1   
     2    1    5 1   
     3    1   35 1   
     4    1   36 1   
     5    2   37 1   
     6    3    5 1   
     7    3    6 1   
     8    3   38 1   
     9    3   39 1   
    10    4    5 1   
    11    4   40 1   
    12    4   41 1   
    13    4   73 1   
    14    5   42 1   
    15    6    7 1   
    16    6   43 1   
    17    6   74 1   
    18    7    8 1   
    19    7   12 1   
    20    7   44 1   
    21    8    9 1   
    22    8   10 1   
    23    8   45 1   
    24    9   46 1   
    25    9   47 1   
    26    9   48 1   
    27   10   11 1   
    28   10   49 1   
    29   10   50 1   
    30   11   51 1   
    31   11   52 1   
    32   11   53 1   
    33   12   13 1   
    34   12   54 1   
    35   12   55 1   
    36   13   14 1   
    37   14   15 1   
    38   14   22 1   
    39   14   56 1   
    40   15   16 1   
    41   15   57 1   
    42   15   58 1   
    43   16   17 ar  
    44   16   18 ar  
    45   17   19 ar  
    46   17   59 1   
    47   18   20 ar  
    48   18   60 1   
    49   19   21 ar  
    50   19   61 1   
    51   20   21 ar  
    52   20   62 1   
    53   21   63 1   
    54   22   23 2   
    55   22   24 1   
    56   24   25 1   
    57   24   64 1   
    58   24   75 1   
    59   25   26 1   
    60   25   32 1   
    61   25   65 1   
    62   26   27 1   
    63   26   66 1   
    64   26   67 1   
    65   27   28 1   
    66   27   68 1   
    67   27   69 1   
    68   28   29 2   
    69   28   30 2   
    70   28   31 1   
    71   31   70 1   
    72   31   71 1   
    73   31   72 1   
    74   32   33 1   
    75   32   34 1   
@<TRIPOS>SUBSTRUCTURE
     1 739         1 TEMP              0 ****  ****    0 ROOT
