@<TRIPOS>MOLECULE
739
   72    72     1     0     0
SMALL
bcc


@<TRIPOS>ATOM
      1 CBC        -0.6790    0.7840    5.4630 c3        1 739     -0.029300
      2 SCC        -1.7440   -0.3570    6.2960 sh        1 739     -0.409900
      3 CC          1.4000    1.2650    4.1950 c3        1 739      0.181800
      4 NC          1.1980   -0.8930    5.4360 n3        1 739     -0.903800
      5 CAC         0.4740    0.1200    4.7000 c3        1 739      0.120500
      6 NI          2.5590    0.8820    3.4310 n3        1 739     -0.824200
      7 CAI         2.4260    0.9610    1.9860 c3        1 739      0.176500
      8 CBI         3.7610    0.6640    1.2640 c3        1 739     -0.060700
      9 CCI         4.7900    1.7240    1.5950 c3        1 739     -0.082100
     10 CDI         4.2870   -0.7290    1.5770 c3        1 739     -0.082400
     11 CEI         5.1860   -1.2510    0.4840 c3        1 739     -0.093100
     12 CI          1.3270    0.0680    1.3630 c3        1 739      0.090400
     13 O'F         0.1150    0.8190    1.4300 os        1 739     -0.417600
     14 CAF        -0.8920    0.3460    0.5370 c3        1 739      0.070100
     15 CBF        -2.1710    1.1150    0.8930 c3        1 739     -0.036100
     16 CCF        -3.2830    0.1970    1.2600 ca        1 739     -0.096300
     17 CDF        -3.4440   -0.2050    2.5910 ca        1 739     -0.127000
     18 CEF        -4.1840   -0.2560    0.2880 ca        1 739     -0.127000
     19 CFF        -4.4860   -1.0560    2.9500 ca        1 739     -0.136000
     20 CGF        -5.2260   -1.1090    0.6540 ca        1 739     -0.136000
     21 CHF        -5.3790   -1.5110    1.9800 ca        1 739     -0.138000
     22 CF         -0.5140    0.6190   -0.9310 c         1 739      0.610100
     23 OF          0.4780    1.3280   -1.2180 o         1 739     -0.648100
     24 NM         -1.2740   -0.0210   -1.8780 n         1 739     -0.514900
     25 CAM        -1.3970    0.4630   -3.2420 c3        1 739     -0.060300
     26 CBM        -0.4930   -0.2750   -4.2330 c3        1 739     -0.037400
     27 CCM         0.9360    0.2360   -4.2190 c3        1 739     -0.341600
     28 SDM         2.1360   -0.9430   -4.0540 s6        1 739      1.326000
     29 ODM         1.8060   -2.1510   -4.6970 o         1 739     -0.676300
     30 OEM         3.3820   -0.3920   -4.4260 o         1 739     -0.676300
     31 CEM         2.1270   -1.1880   -2.3800 c3        1 739     -0.361300
     32 CM         -2.8920    0.3830   -3.7460 c         1 739      0.918600
     33 OXT        -3.7830    0.0380   -2.9180 o         1 739     -0.823300
     34 O          -3.0950    0.7030   -4.9430 o         1 739     -0.823300
     35 HBC1       -0.2830    1.4390    6.2780 h1        1 739      0.078200
     36 HBC2       -1.2620    1.4200    4.7540 h1        1 739      0.078200
     37 HCC        -2.3280   -0.9290    5.2520 hs        1 739      0.220800
     38 HCC1        1.7840    1.8260    5.0960 h1        1 739      0.051700
     39 HCC2        0.7540    1.9630    3.5900 h1        1 739      0.051700
     40 HNC1        1.7460   -0.4770    6.1650 hn        1 739      0.352300
     41 HNC2        0.5520   -1.5420    5.8480 hn        1 739      0.352300
     42 HAC         0.0350   -0.3930    3.7900 h1        1 739      0.075700
     43 HNI         2.9050   -0.0180    3.7050 hn        1 739      0.374800
     44 HAI         2.1470    2.0320    1.7420 h1        1 739      0.082700
     45 HBI         3.5410    0.7260    0.1590 hc        1 739      0.062700
     46 HCI1        5.0610    1.6980    2.6770 hc        1 739      0.034033
     47 HCI2        5.7170    1.5570    0.9940 hc        1 739      0.034033
     48 HCI3        4.3890    2.7380    1.3550 hc        1 739      0.034033
     49 HDI1        3.4240   -1.4350    1.7060 hc        1 739      0.038700
     50 HDI2        4.8490   -0.7110    2.5480 hc        1 739      0.038700
     51 HEI1        5.5720   -2.2640    0.7520 hc        1 739      0.032367
     52 HEI2        4.6270   -1.3300   -0.4810 hc        1 739      0.032367
     53 HEI3        6.0570   -0.5710    0.3270 hc        1 739      0.032367
     54 HI1         1.5790   -0.1690    0.2950 h1        1 739      0.041200
     55 HI2         1.1850   -0.8910    1.9280 h1        1 739      0.041200
     56 HAF        -1.0270   -0.7620    0.6940 h1        1 739      0.057700
     57 HBF1       -1.9430    1.8050    1.7520 hc        1 739      0.072200
     58 HBF2       -2.4800    1.7580    0.0250 hc        1 739      0.072200
     59 HDF        -2.7410    0.1600    3.3550 ha        1 739      0.160000
     60 HEF        -4.0820    0.0550   -0.7730 ha        1 739      0.160000
     61 HFF        -4.6050   -1.3660    3.9980 ha        1 739      0.129500
     62 HGF        -5.9260   -1.4640   -0.1180 ha        1 739      0.129500
     63 HHF        -6.2020   -2.1830    2.2620 ha        1 739      0.121000
     64 HNM        -2.1200   -0.4590   -1.5550 hn        1 739      0.324500
     65 HAM        -1.1230    1.5590   -3.2680 h1        1 739      0.057700
     66 HBM1       -0.5060   -1.3800   -4.0360 hc        1 739      0.071200
     67 HBM2       -0.9410   -0.1150   -5.2530 hc        1 739      0.071200
     68 HCM1        1.1060    0.8150   -5.1690 h1        1 739      0.129700
     69 HCM2        1.0220    1.0130   -3.4030 h1        1 739      0.129700
     70 HEM1        2.9550   -1.8650   -2.0580 h1        1 739      0.115700
     71 HEM2        2.2440   -0.2340   -1.8010 h1        1 739      0.115700
     72 HEM3        1.1710   -1.6460   -2.0240 h1        1 739      0.115700
@<TRIPOS>BOND
     1    1    2 1   
     2    1    5 1   
     3    1   35 1   
     4    1   36 1   
     5    2   37 1   
     6    3    5 1   
     7    3    6 1   
     8    3   38 1   
     9    3   39 1   
    10    4    5 1   
    11    4   40 1   
    12    4   41 1   
    13    5   42 1   
    14    6    7 1   
    15    6   43 1   
    16    7    8 1   
    17    7   12 1   
    18    7   44 1   
    19    8    9 1   
    20    8   10 1   
    21    8   45 1   
    22    9   46 1   
    23    9   47 1   
    24    9   48 1   
    25   10   11 1   
    26   10   49 1   
    27   10   50 1   
    28   11   51 1   
    29   11   52 1   
    30   11   53 1   
    31   12   13 1   
    32   12   54 1   
    33   12   55 1   
    34   13   14 1   
    35   14   15 1   
    36   14   22 1   
    37   14   56 1   
    38   15   16 1   
    39   15   57 1   
    40   15   58 1   
    41   16   17 ar  
    42   16   18 ar  
    43   17   19 ar  
    44   17   59 1   
    45   18   20 ar  
    46   18   60 1   
    47   19   21 ar  
    48   19   61 1   
    49   20   21 ar  
    50   20   62 1   
    51   21   63 1   
    52   22   23 2   
    53   22   24 1   
    54   24   25 1   
    55   24   64 1   
    56   25   26 1   
    57   25   32 1   
    58   25   65 1   
    59   26   27 1   
    60   26   66 1   
    61   26   67 1   
    62   27   28 1   
    63   27   68 1   
    64   27   69 1   
    65   28   29 2   
    66   28   30 2   
    67   28   31 1   
    68   31   70 1   
    69   31   71 1   
    70   31   72 1   
    71   32   33 1   
    72   32   34 1   
@<TRIPOS>SUBSTRUCTURE
     1 739         1 TEMP              0 ****  ****    0 ROOT
