@<TRIPOS>MOLECULE
739
   72    69     1     0     0
SMALL
bcc


@<TRIPOS>ATOM
      1 CBC        -2.2640   -1.7090    6.8810 c3        1 739     -0.294000
      2 SCC        -1.6850   -2.2030    8.5480 sh        1 739     -0.034000
      3 CC         -1.5010   -0.9010    4.6560 c3        1 739     -0.053000
      4 NC         -0.1300   -0.6980    6.5710 n3        1 739     -0.335000
      5 CAC        -1.0540   -1.5270    5.9600 c3        1 739     -0.056000
      6 NI         -0.3950   -0.7520    3.7890 n3        1 739     -0.308000
      7 CAI        -0.8400   -0.1280    2.5720 c3        1 739     -0.018000
      8 CBI        -0.4540    1.3160    2.5730 c3        1 739     -0.108000
      9 CCI        -1.6880    2.1720    2.8020 c3        1 739     -0.199000
     10 CDI         0.5440    1.5700    3.6790 c3        1 739     -0.148000
     11 CEI         1.1030    2.9720    3.5460 c3        1 739     -0.217000
     12 CI         -0.1970   -0.8290    1.3670 c3        1 739     -0.059000
     13 O'F        -0.9080   -0.4740    0.1750 os        1 739     -0.268000
     14 CAF        -0.2670   -0.9090   -1.0400 c3        1 739      0.010000
     15 CBF        -1.2730   -0.9300   -2.1560 c3        1 739     -0.127000
     16 CCF        -1.7730   -2.3830   -2.3850 c2        1 739     -0.088000
     17 CDF        -3.1440   -2.7020   -2.1770 c2        1 739     -0.134000
     18 CEF        -0.9140   -3.3350   -2.9240 c1        1 739     -0.118000
     19 CFF        -3.6180   -3.9640   -2.5150 c1        1 739     -0.146000
     20 CGF        -1.3960   -4.5990   -3.2600 c1        1 739     -0.133500
     21 CHF        -2.7550   -4.9150   -3.0550 c1        1 739     -0.133500
     22 CF          0.8310    0.0350   -1.3890 c2        1 739      0.264000
     23 OF          1.2720    0.7550   -0.5630 o         1 739     -0.393000
     24 NM          1.4530   -0.0060   -2.7680 n         1 739     -0.323000
     25 CAM         2.3260    1.0490   -3.1910 c3        1 739     -0.076000
     26 CBM         2.7050    0.8520   -4.6510 c3        1 739     -0.098000
     27 CCM         3.5070    2.0640   -5.1360 c3        1 739     -0.879000
     28 SDM         3.0790    2.4210   -6.9010 s4        1 739      2.025800
     29 ODM         4.0240    1.7820   -7.8190 o         1 739     -0.574400
     30 OEM         1.7890    1.7510   -7.2950 o         1 739     -0.574400
     31 CEM         3.0030    4.1700   -7.1710 c2        1 739     -0.977000
     32 CM          1.6300    2.3750   -3.0240 c2        1 739      0.326000
     33 OXT         0.6830    2.6840   -3.7910 o         1 739     -0.570000
     34 O           2.0970    3.2580   -2.1680 o         1 739     -0.570000
     35 HBC1       -2.7620   -0.8610    6.9420 h1        1 739      0.102500
     36 HBC2       -2.8480   -2.4050    6.5180 h1        1 739      0.102500
     37 HCC        -2.6230   -2.6340    9.1990 hs        1 739      0.029000
     38 HCC1       -1.8830   -0.0370    4.8310 h1        1 739      0.081500
     39 HCC2       -2.1440   -1.4510    4.2490 h1        1 739      0.081500
     40 HNC1        0.5620   -1.2090    6.9190 hn        1 739      0.150000
     41 HNC2       -0.5540   -0.2140    7.2720 hn        1 739      0.150000
     42 HAC        -0.6650   -2.3570    5.7920 h1        1 739      0.120000
     43 HNI        -0.0560   -1.5490    3.6060 hn        1 739      0.180000
     44 HAI        -1.7760   -0.1970    2.5120 h1        1 739      0.104000
     45 HBI        -0.0420    1.5520    1.6820 hc        1 739      0.140000
     46 HCI1       -1.8700    2.2210    3.7260 hc        1 739      0.068000
     47 HCI2       -2.4490    1.7760    2.3410 hc        1 739      0.068000
     48 HCI3       -1.5320    3.0590    2.4580 hc        1 739      0.068000
     49 HDI1        0.1270    1.4830    4.4950 hc        1 739      0.070000
     50 HDI2        1.2280    0.9620    3.6180 hc        1 739      0.070000
     51 HEI1        1.9860    2.9940    3.8940 hc        1 739      0.077667
     52 HEI2        1.1170    3.2290    2.6030 hc        1 739      0.077667
     53 HEI3        0.5380    3.5980    4.0470 hc        1 739      0.077667
     54 HI1        -0.2390   -1.8400    1.5000 h1        1 739      0.076500
     55 HI2         0.7720   -0.5380    1.2810 h1        1 739      0.076500
     56 HAF         0.1040   -1.8130   -0.9120 h1        1 739      0.098000
     57 HBF1       -0.8580   -0.5980   -2.9740 hc        1 739      0.114000
     58 HBF2       -2.0130   -0.3710   -1.9240 hc        1 739      0.114000
     59 HDF        -3.7720   -2.0120   -1.7840 ha        1 739      0.123000
     60 HEF         0.0570   -3.1110   -3.0730 ha        1 739      0.204000
     61 HFF        -4.5600   -4.1840   -2.3730 ha        1 739      0.117000
     62 HGF        -0.7770   -5.2820   -3.6460 ha        1 739      0.127500
     63 HHF        -3.0940   -5.8140   -3.2940 ha        1 739      0.127500
     64 HNM         1.2680   -0.6880   -3.3240 hn        1 739      0.234000
     65 HAM         3.1030    1.0380   -2.6670 h1        1 739      0.115000
     66 HBM1        3.2430    0.0580   -4.7370 hc        1 739      0.081000
     67 HBM2        1.8860    0.7560   -5.1990 hc        1 739      0.081000
     68 HCM1        4.4680    1.8700   -5.0640 h1        1 739      0.178500
     69 HCM2        3.2860    2.8550   -4.5750 h1        1 739      0.178500
     70 HEM1        2.7530    4.3490   -8.0950 ha        1 739      0.175000
     71 HEM2        3.8680    4.5600   -6.9910 ha        1 739      0.175000
     72 HEM3        2.3600    4.5480   -6.5930 ha        1 739      0.175000
@<TRIPOS>BOND
     1    1    2 1   
     2    1    5 1   
     3    1   35 1   
     4    1   36 1   
     5    2   37 1   
     6    3    5 1   
     7    3    6 1   
     8    3   38 1   
     9    3   39 1   
    10    4    5 1   
    11    4   40 1   
    12    4   41 1   
    13    5   42 1   
    14    6    7 1   
    15    6   43 1   
    16    7    8 1   
    17    7   12 1   
    18    7   44 1   
    19    8    9 1   
    20    8   10 1   
    21    8   45 1   
    22    9   46 1   
    23    9   47 1   
    24    9   48 1   
    25   10   11 1   
    26   10   49 1   
    27   10   50 1   
    28   11   51 1   
    29   11   52 1   
    30   11   53 1   
    31   12   13 1   
    32   12   54 1   
    33   12   55 1   
    34   13   14 1   
    35   14   15 1   
    36   14   22 1   
    37   14   56 1   
    38   15   16 1   
    39   15   57 1   
    40   15   58 1   
    41   16   17 1   
    42   16   18 1   
    43   17   19 1   
    44   17   59 1   
    45   18   60 1   
    46   19   61 1   
    47   20   21 1   
    48   20   62 1   
    49   21   63 1   
    50   22   23 1   
    51   22   24 1   
    52   24   25 1   
    53   24   64 1   
    54   25   26 1   
    55   25   32 1   
    56   25   65 1   
    57   26   27 1   
    58   26   66 1   
    59   26   67 1   
    60   27   28 1   
    61   27   68 1   
    62   27   69 1   
    63   28   29 1   
    64   28   30 1   
    65   31   70 1   
    66   31   71 1   
    67   31   72 1   
    68   32   33 1   
    69   32   34 1   
@<TRIPOS>SUBSTRUCTURE
     1 739         1 TEMP              0 ****  ****    0 ROOT
