@<TRIPOS>MOLECULE
73B
   53    56     1     0     0
SMALL
bcc


@<TRIPOS>ATOM
      1 C1          5.6380    1.0260    1.1640 c3        1 73B     -0.088100
      2 C2          4.2190    0.5230    0.9400 c3        1 73B      0.102700
      3 C3          3.4200    1.5750    0.1600 c3        1 73B     -0.107400
      4 C4          1.9250    1.2100    0.1250 c3        1 73B      0.255800
      5 N1          1.2710    1.8390   -1.0180 nh        1 73B     -0.733600
      6 C5          0.5170    3.0020   -0.8270 ca        1 73B      0.160600
      7 C6          0.8520    3.9600    0.1580 ca        1 73B     -0.185000
      8 C7          0.1480    5.1540    0.2570 ca        1 73B     -0.086000
      9 C8         -0.9030    5.4240   -0.6200 ca        1 73B     -0.030600
     10 CL1        -1.7580    6.8910   -0.4970 cl        1 73B     -0.113400
     11 C9         -1.2580    4.4900   -1.5980 ca        1 73B     -0.086000
     12 C10        -0.5630    3.2930   -1.7010 ca        1 73B     -0.185000
     13 C11         1.6830   -0.2850    0.1630 ca        1 73B     -0.131300
     14 C12         0.3590   -0.7330    0.1640 ca        1 73B     -0.125000
     15 C13         0.0440   -2.0950    0.2510 cp        1 73B      0.012000
     16 C14         1.0950   -3.0160    0.3750 ca        1 73B     -0.117000
     17 C15         2.4170   -2.5910    0.3910 ca        1 73B     -0.142000
     18 C16         2.7360   -1.2230    0.2600 ca        1 73B      0.023600
     19 N2          4.0940   -0.7920    0.3080 n         1 73B     -0.357000
     20 C17         5.0050   -1.2410   -0.6580 c         1 73B      0.661100
     21 C18         4.6360   -2.4050   -1.5470 c3        1 73B     -0.173100
     22 O1          6.1430   -0.7390   -0.7530 o         1 73B     -0.611100
     23 C19        -1.3420   -2.5470    0.2180 cp        1 73B     -0.102000
     24 C20        -1.6830   -3.7330   -0.4510 ca        1 73B     -0.137500
     25 C21        -3.0060   -4.1630   -0.4890 ca        1 73B     -0.113500
     26 C22        -4.0140   -3.4250    0.1410 ca        1 73B     -0.104600
     27 C23        -3.6740   -2.2450    0.8110 ca        1 73B     -0.113500
     28 C24        -2.3530   -1.8070    0.8490 ca        1 73B     -0.137500
     29 C25        -5.4610   -3.9010    0.0970 c         1 73B      0.906200
     30 O2         -5.7070   -4.9730   -0.5220 o         1 73B     -0.824300
     31 O3         -6.3290   -3.1960    0.6830 o         1 73B     -0.824300
     32 H1          6.1010    1.3680    0.2070 hc        1 73B      0.047700
     33 H2          5.5980    1.8870    1.8750 hc        1 73B      0.047700
     34 H3          6.2830    0.2260    1.5990 hc        1 73B      0.047700
     35 H4          3.7390    0.4020    1.9620 h1        1 73B      0.057700
     36 H5          3.5420    2.5690    0.6620 hc        1 73B      0.060200
     37 H6          3.8380    1.6720   -0.8760 hc        1 73B      0.060200
     38 H7          1.4690    1.6120    1.0870 h1        1 73B      0.055700
     39 H8          0.8480    1.1820   -1.6420 hn        1 73B      0.412800
     40 H9          1.6850    3.7750    0.8530 ha        1 73B      0.138500
     41 H10         0.4260    5.8860    1.0320 ha        1 73B      0.142000
     42 H11        -2.0930    4.6960   -2.2850 ha        1 73B      0.142000
     43 H12        -0.8620    2.5670   -2.4720 ha        1 73B      0.138500
     44 H13        -0.4650   -0.0040    0.1020 ha        1 73B      0.144000
     45 H14         0.8660   -4.0880    0.4750 ha        1 73B      0.146000
     46 H15         3.2190   -3.3330    0.5190 ha        1 73B      0.134000
     47 H16         3.5760   -2.3510   -1.8920 hc        1 73B      0.067700
     48 H17         5.3130   -2.3920   -2.4370 hc        1 73B      0.067700
     49 H18         4.7940   -3.3610   -0.9920 hc        1 73B      0.067700
     50 H19        -0.9010   -4.3170   -0.9560 ha        1 73B      0.108500
     51 H20        -3.2910   -5.0890   -1.0150 ha        1 73B      0.156500
     52 H21        -4.4790   -1.6770    1.3060 ha        1 73B      0.156500
     53 H22        -2.0980   -0.8830    1.3870 ha        1 73B      0.108500
@<TRIPOS>BOND
     1    1    2 1   
     2    1   32 1   
     3    1   33 1   
     4    1   34 1   
     5    2    3 1   
     6    2   19 1   
     7    2   35 1   
     8    3    4 1   
     9    3   36 1   
    10    3   37 1   
    11    4    5 1   
    12    4   13 1   
    13    4   38 1   
    14    5    6 1   
    15    5   39 1   
    16    6    7 ar  
    17    6   12 ar  
    18    7    8 ar  
    19    7   40 1   
    20    8    9 ar  
    21    8   41 1   
    22    9   10 1   
    23    9   11 ar  
    24   11   12 ar  
    25   11   42 1   
    26   12   43 1   
    27   13   14 ar  
    28   13   18 ar  
    29   14   15 ar  
    30   14   44 1   
    31   15   16 ar  
    32   15   23 1   
    33   16   17 ar  
    34   16   45 1   
    35   17   18 ar  
    36   17   46 1   
    37   18   19 1   
    38   19   20 1   
    39   20   21 1   
    40   20   22 2   
    41   21   47 1   
    42   21   48 1   
    43   21   49 1   
    44   23   24 ar  
    45   23   28 ar  
    46   24   25 ar  
    47   24   50 1   
    48   25   26 ar  
    49   25   51 1   
    50   26   27 ar  
    51   26   29 1   
    52   27   28 ar  
    53   27   52 1   
    54   28   53 1   
    55   29   30 1   
    56   29   31 1   
@<TRIPOS>SUBSTRUCTURE
     1 73B         1 TEMP              0 ****  ****    0 ROOT
