@<TRIPOS>MOLECULE
73B
   54    57     1     0     0
SMALL
bcc


@<TRIPOS>ATOM
      1 C1          0.9540    0.7440   -0.0020 c3        1 73B     -0.108100
      2 C2          2.3520    0.1960   -0.2680 c3        1 73B      0.077700
      3 C3          3.3570    0.8800    0.6810 c3        1 73B     -0.124400
      4 C4          4.5040   -0.0190    1.1450 c3        1 73B      0.210800
      5 N1          4.1840   -0.6730    2.4890 n4        1 73B     -0.654400
      6 C5          4.5030    0.1860    3.6260 ca        1 73B     -0.049400
      7 C6          5.8430    0.3430    4.0270 ca        1 73B     -0.094500
      8 C7          6.1420    1.1530    5.1170 ca        1 73B     -0.109500
      9 C8          5.1140    1.8100    5.8070 ca        1 73B      0.050400
     10 CL1         5.4830    2.7930    7.1300 cl        1 73B     -0.029400
     11 C9          3.7810    1.6530    5.4060 ca        1 73B     -0.109500
     12 C10         3.4710    0.8440    4.3170 ca        1 73B     -0.094500
     13 C11         4.8170   -1.1050    0.1640 ca        1 73B     -0.199300
     14 C12         6.1330   -1.5080   -0.0380 ca        1 73B     -0.110000
     15 C13         6.4330   -2.5450   -0.9400 cp        1 73B      0.050000
     16 C14         5.3770   -3.1370   -1.6540 ca        1 73B     -0.099000
     17 C15         4.0570   -2.7350   -1.4680 ca        1 73B     -0.106000
     18 C16         3.7570   -1.7240   -0.5420 ca        1 73B     -0.006400
     19 N2          2.4200   -1.2650   -0.3160 n         1 73B     -0.365000
     20 C17         1.6850   -2.0330    0.6400 c         1 73B      0.672100
     21 C18         1.2190   -3.3950    0.2140 c3        1 73B     -0.169100
     22 O1          1.4130   -1.5720    1.7680 o         1 73B     -0.630100
     23 C19         7.8040   -2.9980   -1.0860 cp        1 73B     -0.140000
     24 C20         8.0860   -4.3610   -1.2840 ca        1 73B     -0.127000
     25 C21         9.4030   -4.8010   -1.3450 ca        1 73B     -0.113500
     26 C22        10.4620   -3.8960   -1.2180 ca        1 73B     -0.084600
     27 C23        10.1830   -2.5330   -1.0580 ca        1 73B     -0.113500
     28 C24         8.8690   -2.0860   -0.9890 ca        1 73B     -0.127000
     29 C25        11.9110   -4.3860   -1.2380 c         1 73B      0.906200
     30 O2         12.8100   -3.5220   -1.0630 o         1 73B     -0.806300
     31 O3         12.0980   -5.6190   -1.4150 o         1 73B     -0.806300
     32 H1          0.2220    0.3250   -0.7350 hc        1 73B      0.057033
     33 H2          0.6060    0.4990    1.0300 hc        1 73B      0.057033
     34 H3          0.9790    1.8540   -0.1220 hc        1 73B      0.057033
     35 H4          2.6390    0.5040   -1.3250 h1        1 73B      0.088700
     36 H5          2.8160    1.3140    1.5640 hc        1 73B      0.078200
     37 H6          3.8180    1.7420    0.1270 hc        1 73B      0.078200
     38 H7          5.4240    0.6170    1.3270 hx        1 73B      0.107700
     39 H8          4.7330   -1.5390    2.5620 hn        1 73B      0.467300
     40 H9          6.6630   -0.1700    3.4950 ha        1 73B      0.165500
     41 H10         7.1920    1.2740    5.4350 ha        1 73B      0.177000
     42 H11         2.9720    2.1670    5.9510 ha        1 73B      0.177000
     43 H12         2.4160    0.7260    4.0140 ha        1 73B      0.165500
     44 H13         6.9550   -1.0180    0.5080 ha        1 73B      0.148000
     45 H14         5.6050   -3.9320   -2.3850 ha        1 73B      0.166000
     46 H15         3.2520   -3.2070   -2.0540 ha        1 73B      0.153000
     47 H16         0.7760   -3.9270    1.0910 hc        1 73B      0.084367
     48 H17         0.4390   -3.2840   -0.5810 hc        1 73B      0.084367
     49 H18         2.0670   -3.9950   -0.2000 hc        1 73B      0.084367
     50 H19         7.2610   -5.0830   -1.3700 ha        1 73B      0.106000
     51 H20         9.6470   -5.8680   -1.4870 ha        1 73B      0.168000
     52 H21        11.0340   -1.8350   -0.9840 ha        1 73B      0.168000
     53 H22         8.6620   -1.0120   -0.8780 ha        1 73B      0.106000
     54 H121        3.1780   -0.9130    2.5150 hn        1 73B      0.467300
@<TRIPOS>BOND
     1    1    2 1   
     2    1   32 1   
     3    1   33 1   
     4    1   34 1   
     5    2    3 1   
     6    2   19 1   
     7    2   35 1   
     8    3    4 1   
     9    3   36 1   
    10    3   37 1   
    11    4    5 1   
    12    4   13 1   
    13    4   38 1   
    14    5    6 1   
    15    5   39 1   
    16    5   54 1   
    17    6    7 ar  
    18    6   12 ar  
    19    7    8 ar  
    20    7   40 1   
    21    8    9 ar  
    22    8   41 1   
    23    9   10 1   
    24    9   11 ar  
    25   11   12 ar  
    26   11   42 1   
    27   12   43 1   
    28   13   14 ar  
    29   13   18 ar  
    30   14   15 ar  
    31   14   44 1   
    32   15   16 ar  
    33   15   23 1   
    34   16   17 ar  
    35   16   45 1   
    36   17   18 ar  
    37   17   46 1   
    38   18   19 1   
    39   19   20 1   
    40   20   21 1   
    41   20   22 2   
    42   21   47 1   
    43   21   48 1   
    44   21   49 1   
    45   23   24 ar  
    46   23   28 ar  
    47   24   25 ar  
    48   24   50 1   
    49   25   26 ar  
    50   25   51 1   
    51   26   27 ar  
    52   26   29 1   
    53   27   28 ar  
    54   27   52 1   
    55   28   53 1   
    56   29   30 1   
    57   29   31 1   
@<TRIPOS>SUBSTRUCTURE
     1 73B         1 TEMP              0 ****  ****    0 ROOT
