@<TRIPOS>MOLECULE
73B
   53    56     1     0     0
SMALL
bcc


@<TRIPOS>ATOM
      1 C1          0.7560    0.8180   -0.5260 c3        1 73B     -0.088100
      2 C2          2.1180    0.1600   -0.3520 c3        1 73B      0.102700
      3 C3          2.5950    0.3450    1.0950 c3        1 73B     -0.107400
      4 C4          4.0630   -0.0920    1.2450 c3        1 73B      0.255800
      5 N1          4.3520   -0.4480    2.6310 nu        1 73B     -0.733600
      6 C5          5.0130    0.4680    3.4560 ca        1 73B      0.160600
      7 C6          4.8400    1.8650    3.3140 ca        1 73B     -0.185000
      8 C7          5.4270    2.7490    4.2120 ca        1 73B     -0.086000
      9 C8          6.1980    2.2650    5.2700 ca        1 73B     -0.030600
     10 Cl1         6.9100    3.3530    6.3700 cl        1 73B     -0.113400
     11 C9          6.3890    0.8890    5.4270 ca        1 73B     -0.086000
     12 C10         5.8110    0.0010    4.5320 ca        1 73B     -0.185000
     13 C11         4.4500   -1.1970    0.2850 ca        1 73B     -0.131300
     14 C12         5.7710   -1.6550    0.3120 ca        1 73B     -0.125000
     15 C13         6.2280   -2.6370   -0.5760 cp        1 73B      0.012000
     16 C14         5.3320   -3.1360   -1.5340 ca        1 73B     -0.117000
     17 C15         4.0210   -2.6840   -1.5900 ca        1 73B     -0.142000
     18 C16         3.5490   -1.7280   -0.6670 ca        1 73B      0.023600
     19 N2          2.2100   -1.2460   -0.7500 n         1 73B     -0.357000
     20 C17         1.1370   -2.1340   -0.5910 c         1 73B      0.661100
     21 C18         1.3850   -3.6230   -0.6460 c3        1 73B     -0.173100
     22 O1         -0.0330   -1.7170   -0.4710 o         1 73B     -0.611100
     23 C19         7.6000   -3.1260   -0.5110 cp        1 73B     -0.102000
     24 C20         7.8790   -4.4820   -0.7440 ca        1 73B     -0.137500
     25 C21         9.1860   -4.9530   -0.6760 ca        1 73B     -0.113500
     26 C22        10.2420   -4.0830   -0.3820 ca        1 73B     -0.104600
     27 C23         9.9650   -2.7310   -0.1540 ca        1 73B     -0.113500
     28 C24         8.6590   -2.2550   -0.2150 ca        1 73B     -0.137500
     29 C25        11.6720   -4.6040   -0.3100 c         1 73B      0.906200
     30 O2         11.8610   -5.8330   -0.5250 o         1 73B     -0.824300
     31 O3         12.5860   -3.7750   -0.0410 o         1 73B     -0.824300
     32 H1          0.8870    1.9240   -0.4450 hc        1 73B      0.047700
     33 H2          0.3180    0.5750   -1.5230 hc        1 73B      0.047700
     34 H3          0.0410    0.4790    0.2620 hc        1 73B      0.047700
     35 H4          2.8440    0.7040   -1.0350 h1        1 73B      0.057700
     36 H5          1.9270   -0.2320    1.7860 hc        1 73B      0.060200
     37 H6          2.5050    1.4270    1.3710 hc        1 73B      0.060200
     38 H7          4.7020    0.8010    0.9460 h1        1 73B      0.055700
     39 H8          4.6700   -1.3900    2.7390 hn        1 73B      0.412800
     40 H9          4.2250    2.2700    2.4950 ha        1 73B      0.138500
     41 H10         5.2790    3.8320    4.0830 ha        1 73B      0.142000
     42 H11         7.0060    0.5060    6.2550 ha        1 73B      0.142000
     43 H12         5.9790   -1.0790    4.6670 ha        1 73B      0.138500
     44 H13         6.4800   -1.2350    1.0440 ha        1 73B      0.144000
     45 H14         5.6820   -3.8870   -2.2610 ha        1 73B      0.146000
     46 H15         3.3510   -3.0730   -2.3710 ha        1 73B      0.134000
     47 H16         0.5130   -4.1410   -0.1770 hc        1 73B      0.067700
     48 H17         1.4630   -3.9470   -1.7120 hc        1 73B      0.067700
     49 H18         2.3180   -3.9140   -0.1050 hc        1 73B      0.067700
     50 H19         7.0560   -5.1760   -0.9680 ha        1 73B      0.108500
     51 H20         9.4210   -6.0160   -0.8510 ha        1 73B      0.156500
     52 H21        10.8090   -2.0590    0.0730 ha        1 73B      0.156500
     53 H22         8.4560   -1.1880   -0.0440 ha        1 73B      0.108500
@<TRIPOS>BOND
     1    1    2 1   
     2    1   32 1   
     3    1   33 1   
     4    1   34 1   
     5    2    3 1   
     6    2   19 1   
     7    2   35 1   
     8    3    4 1   
     9    3   36 1   
    10    3   37 1   
    11    4    5 1   
    12    4   13 1   
    13    4   38 1   
    14    5    6 1   
    15    5   39 1   
    16    6    7 ar  
    17    6   12 ar  
    18    7    8 ar  
    19    7   40 1   
    20    8    9 ar  
    21    8   41 1   
    22    9   10 1   
    23    9   11 ar  
    24   11   12 ar  
    25   11   42 1   
    26   12   43 1   
    27   13   14 ar  
    28   13   18 ar  
    29   14   15 ar  
    30   14   44 1   
    31   15   16 ar  
    32   15   23 1   
    33   16   17 ar  
    34   16   45 1   
    35   17   18 ar  
    36   17   46 1   
    37   18   19 1   
    38   19   20 1   
    39   20   21 1   
    40   20   22 2   
    41   21   47 1   
    42   21   48 1   
    43   21   49 1   
    44   23   24 ar  
    45   23   28 ar  
    46   24   25 ar  
    47   24   50 1   
    48   25   26 ar  
    49   25   51 1   
    50   26   27 ar  
    51   26   29 1   
    52   27   28 ar  
    53   27   52 1   
    54   28   53 1   
    55   29   30 1   
    56   29   31 1   
@<TRIPOS>SUBSTRUCTURE
     1 73B         1 TEMP              0 ****  ****    0 ROOT
