@<TRIPOS>MOLECULE
73B
   53    46     1     0     0
SMALL
bcc


@<TRIPOS>ATOM
      1 C1         -4.7220    1.1810   -1.0390 c3        1 73B     -0.206000
      2 C2         -3.1330    1.2230   -1.0640 c3        1 73B      0.026000
      3 C3         -2.6580    1.2360    0.3360 c3        1 73B     -0.187000
      4 C4         -1.2720    1.1450    0.5270 c3        1 73B      0.051000
      5 N1         -1.0320    0.6250    1.8850 n3        1 73B     -0.290000
      6 C5         -0.7300    1.5460    2.9760 c1        1 73B      0.080000
      7 C6          0.0110    1.1100    4.0570 c1        1 73B     -0.135000
      8 C7          0.1520    1.9240    5.1820 c1        1 73B     -0.135000
      9 C8         -0.4500    3.1680    5.2150 c1        1 73B     -0.096500
     10 CL1        -0.1970    4.2240    6.5850 cl        1 73B     -0.035000
     11 C9         -1.1920    3.6060    4.1340 c1        1 73B     -0.100500
     12 C10        -1.3340    2.7940    3.0100 c1        1 73B     -0.184000
     13 C11        -0.4600    0.2020   -0.5250 c2        1 73B     -0.124000
     14 C12         0.8710   -0.1680   -0.3300 c2        1 73B     -0.125000
     15 C13         1.5000   -1.0720   -1.2350 c1        1 73B      0.013000
     16 C14         0.7650   -1.6030   -2.3500 c2        1 73B     -0.117000
     17 C15        -0.5970   -1.2280   -2.5540 c1        1 73B     -0.141000
     18 C16        -1.2160   -0.3460   -1.6730 c1        1 73B      0.031000
     19 N2         -2.6850    0.1570   -1.8840 n2        1 73B     -0.260000
     20 C17        -3.3780   -0.1520   -3.0910 c2        1 73B      0.305000
     21 C18        -2.9370   -1.3110   -3.9330 c3        1 73B     -0.241000
     22 O1         -4.3520    0.4990   -3.4160 o         1 73B     -0.372000
     23 C19         2.9500   -1.5680   -0.9550 c1        1 73B     -0.101000
     24 C20         4.0400   -0.8080   -1.3760 c2        1 73B     -0.137000
     25 C21         5.3320   -1.2810   -1.1820 c1        1 73B     -0.113000
     26 C22         5.5370   -2.5090   -0.5700 c1        1 73B     -0.096500
     27 C23         4.4470   -3.2690   -0.1500 c1        1 73B     -0.100500
     28 C24         3.1560   -2.7970   -0.3430 c1        1 73B     -0.138000
     29 C25         6.9430   -3.0060   -0.3290 c1        1 73B      0.355000
     30 O2          7.5380   -2.7080    0.7340 o         1 73B     -0.559000
     31 O3          7.5480   -3.6430   -1.2320 o         1 73B     -0.559000
     32 H1         -5.0740    1.7070   -1.7860 hc        1 73B      0.087000
     33 H2         -5.0260    0.2530   -1.1210 hc        1 73B      0.087000
     34 H3         -5.0490    1.5620   -0.1820 hc        1 73B      0.087000
     35 H4         -2.8580    2.0610   -1.4840 h1        1 73B      0.097000
     36 H5         -3.0660    0.4760    0.7900 hc        1 73B      0.099500
     37 H6         -2.9540    2.0750    0.7380 hc        1 73B      0.099500
     38 H7         -0.9010    2.0450    0.4750 h1        1 73B      0.095000
     39 H8         -1.0360   -0.2750    2.0360 hn        1 73B      0.208000
     40 H9          0.4330    0.2380    4.0340 ha        1 73B      0.142500
     41 H10         0.6770    1.6140    5.9470 ha        1 73B      0.142500
     42 H11        -1.6200    4.4910    4.1580 ha        1 73B      0.147500
     43 H12        -1.8990    3.0800    2.2730 ha        1 73B      0.136000
     44 H13         1.3710    0.1930    0.4270 ha        1 73B      0.144000
     45 H14         1.2000   -2.2250   -2.9720 ha        1 73B      0.145000
     46 H15        -1.0930   -1.5900   -3.3110 ha        1 73B      0.134000
     47 H16        -3.6660   -1.5760   -4.5330 hc        1 73B      0.107000
     48 H17        -2.1610   -1.0520   -4.4610 hc        1 73B      0.107000
     49 H18        -2.7010   -2.0630   -3.3550 hc        1 73B      0.107000
     50 H19         3.8960    0.0350   -1.8410 ha        1 73B      0.109000
     51 H20         6.0940   -0.7510   -1.4760 ha        1 73B      0.156000
     52 H21         4.5930   -4.1400    0.2840 ha        1 73B      0.147500
     53 H22         2.3960   -3.3280   -0.0490 ha        1 73B      0.105000
@<TRIPOS>BOND
     1    1    2 1   
     2    1   32 1   
     3    1   33 1   
     4    1   34 1   
     5    2    3 1   
     6    2   19 1   
     7    2   35 1   
     8    3    4 1   
     9    3   36 1   
    10    3   37 1   
    11    4    5 1   
    12    4   13 1   
    13    4   38 1   
    14    5    6 1   
    15    5   39 1   
    16    6   12 1   
    17    7    8 1   
    18    7   40 1   
    19    8   41 1   
    20    9   11 1   
    21   11   42 1   
    22   12   43 1   
    23   13   14 1   
    24   13   18 1   
    25   14   15 1   
    26   14   44 1   
    27   15   16 1   
    28   16   17 1   
    29   16   45 1   
    30   17   46 1   
    31   19   20 1   
    32   20   21 1   
    33   20   22 1   
    34   21   47 1   
    35   21   48 1   
    36   21   49 1   
    37   23   24 1   
    38   23   28 1   
    39   24   25 1   
    40   24   50 1   
    41   25   51 1   
    42   26   27 1   
    43   27   52 1   
    44   28   53 1   
    45   29   30 1   
    46   29   31 1   
@<TRIPOS>SUBSTRUCTURE
     1 73B         1 TEMP              0 ****  ****    0 ROOT
