@<TRIPOS>MOLECULE
73B
   53    56     1     0     0
SMALL
bcc


@<TRIPOS>ATOM
      1 C1          0.7400    0.7860   -0.5250 c3        1 73B     -0.088100
      2 C2          2.1060    0.1370   -0.3510 c3        1 73B      0.102700
      3 C3          2.5860    0.3340    1.0920 c3        1 73B     -0.107400
      4 C4          4.0580   -0.0950    1.2410 c3        1 73B      0.255800
      5 N1          4.3530   -0.4400    2.6280 nh        1 73B     -0.733600
      6 C5          5.0130    0.4850    3.4440 ca        1 73B      0.160600
      7 C6          4.8320    1.8800    3.2940 ca        1 73B     -0.185000
      8 C7          5.4190    2.7730    4.1830 ca        1 73B     -0.086000
      9 C8          6.1970    2.3000    5.2410 ca        1 73B     -0.030600
     10 CL1         6.9090    3.3980    6.3300 cl        1 73B     -0.113400
     11 C9          6.3960    0.9260    5.4060 ca        1 73B     -0.086000
     12 C10         5.8180    0.0290    4.5190 ca        1 73B     -0.185000
     13 C11         4.4480   -1.2040    0.2860 ca        1 73B     -0.131300
     14 C12         5.7700   -1.6550    0.3130 ca        1 73B     -0.125000
     15 C13         6.2290   -2.6400   -0.5710 cp        1 73B      0.012000
     16 C14         5.3340   -3.1510   -1.5230 ca        1 73B     -0.117000
     17 C15         4.0210   -2.7060   -1.5770 ca        1 73B     -0.142000
     18 C16         3.5460   -1.7460   -0.6590 ca        1 73B      0.023600
     19 N2          2.2040   -1.2720   -0.7400 n         1 73B     -0.357000
     20 C17         1.1360   -2.1640   -0.5720 c         1 73B      0.661100
     21 C18         1.3930   -3.6520   -0.6180 c3        1 73B     -0.173100
     22 O1         -0.0350   -1.7520   -0.4510 o         1 73B     -0.611100
     23 C19         7.6040   -3.1220   -0.5070 cp        1 73B     -0.102000
     24 C20         7.8900   -4.4780   -0.7310 ca        1 73B     -0.137500
     25 C21         9.2000   -4.9410   -0.6640 ca        1 73B     -0.113500
     26 C22        10.2520   -4.0640   -0.3790 ca        1 73B     -0.104600
     27 C23         9.9690   -2.7120   -0.1600 ca        1 73B     -0.113500
     28 C24         8.6600   -2.2430   -0.2200 ca        1 73B     -0.137500
     29 C25        11.6850   -4.5770   -0.3090 c         1 73B      0.906200
     30 O2         11.8800   -5.8070   -0.5160 o         1 73B     -0.824300
     31 O3         12.5950   -3.7410   -0.0480 o         1 73B     -0.824300
     32 H1          0.3000    0.5340   -1.5190 hc        1 73B      0.047700
     33 H2          0.0290    0.4480    0.2670 hc        1 73B      0.047700
     34 H3          0.8650    1.8930   -0.4520 hc        1 73B      0.047700
     35 H4          2.8270    0.6800   -1.0400 h1        1 73B      0.057700
     36 H5          1.9240   -0.2430    1.7900 hc        1 73B      0.060200
     37 H6          2.4910    1.4170    1.3620 hc        1 73B      0.060200
     38 H7          4.6900    0.8000    0.9340 h1        1 73B      0.055700
     39 H8          4.6760   -1.3800    2.7410 hn        1 73B      0.412800
     40 H9          4.2120    2.2760    2.4760 ha        1 73B      0.138500
     41 H10         5.2640    3.8540    4.0480 ha        1 73B      0.142000
     42 H11         7.0190    0.5510    6.2330 ha        1 73B      0.142000
     43 H12         5.9930   -1.0490    4.6610 ha        1 73B      0.138500
     44 H13         6.4800   -1.2260    1.0400 ha        1 73B      0.144000
     45 H14         5.6850   -3.9040   -2.2460 ha        1 73B      0.146000
     46 H15         3.3490   -3.1030   -2.3540 ha        1 73B      0.134000
     47 H16         0.5240   -4.1710   -0.1430 hc        1 73B      0.067700
     48 H17         1.4680   -3.9830   -1.6820 hc        1 73B      0.067700
     49 H18         2.3280   -3.9340   -0.0790 hc        1 73B      0.067700
     50 H19         7.0700   -5.1780   -0.9490 ha        1 73B      0.108500
     51 H20         9.4400   -6.0040   -0.8330 ha        1 73B      0.156500
     52 H21        10.8090   -2.0340    0.0600 ha        1 73B      0.156500
     53 H22         8.4520   -1.1760   -0.0550 ha        1 73B      0.108500
@<TRIPOS>BOND
     1    1    2 1   
     2    1   32 1   
     3    1   33 1   
     4    1   34 1   
     5    2    3 1   
     6    2   19 1   
     7    2   35 1   
     8    3    4 1   
     9    3   36 1   
    10    3   37 1   
    11    4    5 1   
    12    4   13 1   
    13    4   38 1   
    14    5    6 1   
    15    5   39 1   
    16    6    7 ar  
    17    6   12 ar  
    18    7    8 ar  
    19    7   40 1   
    20    8    9 ar  
    21    8   41 1   
    22    9   10 1   
    23    9   11 ar  
    24   11   12 ar  
    25   11   42 1   
    26   12   43 1   
    27   13   14 ar  
    28   13   18 ar  
    29   14   15 ar  
    30   14   44 1   
    31   15   16 ar  
    32   15   23 1   
    33   16   17 ar  
    34   16   45 1   
    35   17   18 ar  
    36   17   46 1   
    37   18   19 1   
    38   19   20 1   
    39   20   21 1   
    40   20   22 2   
    41   21   47 1   
    42   21   48 1   
    43   21   49 1   
    44   23   24 ar  
    45   23   28 ar  
    46   24   25 ar  
    47   24   50 1   
    48   25   26 ar  
    49   25   51 1   
    50   26   27 ar  
    51   26   29 1   
    52   27   28 ar  
    53   27   52 1   
    54   28   53 1   
    55   29   30 1   
    56   29   31 1   
@<TRIPOS>SUBSTRUCTURE
     1 73B         1 TEMP              0 ****  ****    0 ROOT
