@<TRIPOS>MOLECULE
73Q
   28    24     1     0     0
SMALL
bcc


@<TRIPOS>ATOM
      1 C1         -3.7340    0.0220    1.0930 c3        1 73Q     -0.163000
      2 C2         -2.2210    0.0220    1.0930 c2        1 73Q     -0.026000
      3 N1         -1.7770    0.0220    2.3740 n2        1 73Q     -0.081000
      4 N2         -0.3990    0.0220    2.3500 n2        1 73Q     -0.096000
      5 C3          0.0390    0.1620    3.6970 c2        1 73Q     -0.064000
      6 C4          0.0020    0.0220    1.0410 c1        1 73Q      0.012000
      7 N3          1.2600    0.0220    0.4550 n2        1 73Q      0.020000
      8 O1          2.3700   -0.1290    1.2410 o         1 73Q     -0.212000
      9 C5          1.3840    0.0220   -0.9220 c2        1 73Q      0.010000
     10 C6          2.6610    0.0220   -1.5160 c1        1 73Q     -0.137000
     11 C7          2.7840    0.0220   -2.8990 c1        1 73Q     -0.090000
     12 C8          1.6470    0.0220   -3.6990 c1        1 73Q     -0.080000
     13 CL          1.8920   -0.0460   -5.4240 cl        1 73Q      0.002000
     14 C9          0.3870    0.0220   -3.1150 c2        1 73Q     -0.062000
     15 C10         0.2610    0.0220   -1.7120 c1        1 73Q     -0.138000
     16 C11        -0.9960    0.0220   -1.1270 c1        1 73Q      0.351000
     17 O2         -1.9900   -0.0230   -1.8240 o         1 73Q     -0.305000
     18 C12        -1.1170    0.0220    0.2580 c1        1 73Q     -0.265000
     19 H11        -4.0590    0.0770    2.0110 hc        1 73Q      0.104000
     20 H12        -4.0590    0.7900    0.5850 hc        1 73Q      0.104000
     21 H13        -4.0590   -0.8010    0.6820 hc        1 73Q      0.104000
     22 H31         0.6270    0.9380    3.7690 ha        1 73Q      0.107667
     23 H32        -0.7340    0.2840    4.2800 ha        1 73Q      0.107667
     24 H33         0.5260   -0.6400    3.9660 ha        1 73Q      0.107667
     25 HO1         2.5880   -0.9890    1.2830 ho        1 73Q      0.192000
     26 H6          3.4600    0.0220   -0.9550 ha        1 73Q      0.159000
     27 H7          3.6700    0.0280   -3.3100 ha        1 73Q      0.155000
     28 H9         -0.4110    0.0220   -3.6770 ha        1 73Q      0.179000
@<TRIPOS>BOND
     1    1    2 1   
     2    1   19 1   
     3    1   20 1   
     4    1   21 1   
     5    2    3 1   
     6    2   18 1   
     7    3    4 1   
     8    4    6 1   
     9    5   22 1   
    10    5   23 1   
    11    5   24 1   
    12    6    7 1   
    13    7    9 1   
    14    8   25 1   
    15    9   10 1   
    16    9   15 1   
    17   10   26 1   
    18   11   12 1   
    19   11   27 1   
    20   12   14 1   
    21   14   15 1   
    22   14   28 1   
    23   16   17 1   
    24   16   18 1   
@<TRIPOS>SUBSTRUCTURE
     1 73Q         1 TEMP              0 ****  ****    0 ROOT
