@<TRIPOS>MOLECULE
73Q
   28    30     1     0     0
SMALL
bcc


@<TRIPOS>ATOM
      1 C1          3.2070   -2.8980    0.2330 c3        1 73Q     -0.138400
      2 C2          2.9030   -1.4580    0.1430 cc        1 73Q      0.398600
      3 N1          3.8240   -0.4560    0.2250 nd        1 73Q     -0.514800
      4 N2          3.1760    0.7210    0.0920 na        1 73Q      0.109400
      5 C3          3.8150    2.0130    0.1500 c3        1 73Q      0.039600
      6 C4          1.8010    0.5170   -0.0810 cd        1 73Q      0.104300
      7 N3          0.7910    1.4650   -0.4140 na        1 73Q     -0.226900
      8 O1          1.0040    2.6720    0.1320 oh        1 73Q     -0.391300
      9 C5         -0.5440    0.9620   -0.1730 ca        1 73Q      0.121600
     10 C6         -1.6170    1.8750   -0.0890 ca        1 73Q     -0.140000
     11 C7         -2.9280    1.4210   -0.0270 ca        1 73Q     -0.088000
     12 C8         -3.1930    0.0470   -0.0440 ca        1 73Q     -0.006600
     13 CL         -4.7980   -0.5030    0.0160 cl        1 73Q     -0.079400
     14 C9         -2.1440   -0.8700   -0.1030 ca        1 73Q     -0.059000
     15 C10        -0.8160   -0.4280   -0.1530 ca        1 73Q     -0.161600
     16 C11         0.2630   -1.4530   -0.1510 c         1 73Q      0.633300
     17 O2          0.0140   -2.6650   -0.2090 o         1 73Q     -0.546100
     18 C12         1.5850   -0.8900   -0.0450 cc        1 73Q     -0.352900
     19 H11         3.6890   -3.1380    1.2140 hc        1 73Q      0.064367
     20 H12         2.2560   -3.4830    0.1410 hc        1 73Q      0.064367
     21 H13         3.9030   -3.2040   -0.5870 hc        1 73Q      0.064367
     22 H31         3.6350    2.5520   -0.8180 h1        1 73Q      0.064700
     23 H32         3.3640    2.6070    0.9910 h1        1 73Q      0.064700
     24 H33         4.9180    1.8970    0.3170 h1        1 73Q      0.064700
     25 HO1         1.0520    3.2810   -0.6330 ho        1 73Q      0.432000
     26 H6         -1.4180    2.9580   -0.0650 ha        1 73Q      0.149000
     27 H7         -3.7540    2.1460    0.0370 ha        1 73Q      0.154000
     28 H9         -2.3380   -1.9580   -0.1070 ha        1 73Q      0.178000
@<TRIPOS>BOND
     1    1    2 1   
     2    1   19 1   
     3    1   20 1   
     4    1   21 1   
     5    2    3 2   
     6    2   18 1   
     7    3    4 1   
     8    4    5 1   
     9    4    6 1   
    10    5   22 1   
    11    5   23 1   
    12    5   24 1   
    13    6    7 1   
    14    6   18 2   
    15    7    8 1   
    16    7    9 1   
    17    8   25 1   
    18    9   10 ar  
    19    9   15 ar  
    20   10   11 ar  
    21   10   26 1   
    22   11   12 ar  
    23   11   27 1   
    24   12   13 1   
    25   12   14 ar  
    26   14   15 ar  
    27   14   28 1   
    28   15   16 1   
    29   16   17 2   
    30   16   18 1   
@<TRIPOS>SUBSTRUCTURE
     1 73Q         1 TEMP              0 ****  ****    0 ROOT
