@<TRIPOS>MOLECULE
73Q
   28    30     1     0     0
SMALL
bcc


@<TRIPOS>ATOM
      1 C1          0.0220    0.0080    0.0480 c3        1 73Q     -0.138400
      2 C2          1.4960   -0.0410    0.0060 cc        1 73Q      0.398600
      3 N1          2.3090   -0.1050    1.0990 nd        1 73Q     -0.514800
      4 N2          3.5880   -0.1420    0.6680 na        1 73Q      0.109400
      5 C3          4.7390   -0.1870    1.5370 c3        1 73Q      0.039600
      6 C4          3.6440   -0.1010   -0.7310 cd        1 73Q      0.104300
      7 N3          4.7700   -0.2810   -1.5860 na        1 73Q     -0.226900
      8 O1          5.9030    0.2220   -1.0740 oh        1 73Q     -0.391300
      9 C5          4.5140    0.1640   -2.9400 ca        1 73Q      0.121600
     10 C6          5.6070    0.4080   -3.7990 ca        1 73Q     -0.140000
     11 C7          5.4000    0.6710   -5.1470 ca        1 73Q     -0.088000
     12 C8          4.0990    0.7010   -5.6610 ca        1 73Q     -0.006600
     13 Cl          3.8520    1.0080   -7.3120 cl        1 73Q     -0.079400
     14 C9          3.0070    0.4860   -4.8220 ca        1 73Q     -0.059000
     15 C10         3.1980    0.2320   -3.4580 ca        1 73Q     -0.161600
     16 C11         1.9930    0.0730   -2.6000 c         1 73Q      0.633300
     17 O2          0.8490    0.0590   -3.0750 o         1 73Q     -0.546100
     18 C12         2.3010   -0.0270   -1.1960 cc        1 73Q     -0.352900
     19 H11        -0.3260    0.9040    0.6210 hc        1 73Q      0.064367
     20 H12        -0.3860   -0.9080    0.5430 hc        1 73Q      0.064367
     21 H13        -0.3760    0.0650   -0.9970 hc        1 73Q      0.064367
     22 H31         5.3250   -1.1190    1.3160 h1        1 73Q      0.064700
     23 H32         4.4180   -0.1910    2.6120 h1        1 73Q      0.064700
     24 H33         5.3840    0.7100    1.3360 h1        1 73Q      0.064700
     25 HO1         6.5110   -0.5440   -1.0300 ho        1 73Q      0.432000
     26 H6          6.6340    0.3970   -3.4020 ha        1 73Q      0.149000
     27 H7          6.2630    0.8590   -5.8060 ha        1 73Q      0.154000
     28 H9          1.9740    0.5170   -5.2120 ha        1 73Q      0.178000
@<TRIPOS>BOND
     1    1    2 1   
     2    1   19 1   
     3    1   20 1   
     4    1   21 1   
     5    2    3 2   
     6    2   18 1   
     7    3    4 1   
     8    4    5 1   
     9    4    6 1   
    10    5   22 1   
    11    5   23 1   
    12    5   24 1   
    13    6    7 1   
    14    6   18 2   
    15    7    8 1   
    16    7    9 1   
    17    8   25 1   
    18    9   10 ar  
    19    9   15 ar  
    20   10   11 ar  
    21   10   26 1   
    22   11   12 ar  
    23   11   27 1   
    24   12   13 1   
    25   12   14 ar  
    26   14   15 ar  
    27   14   28 1   
    28   15   16 1   
    29   16   17 2   
    30   16   18 1   
@<TRIPOS>SUBSTRUCTURE
     1 73Q         1 TEMP              0 ****  ****    0 ROOT
