@<TRIPOS>MOLECULE
73Q
   28    30     1     0     0
SMALL
bcc


@<TRIPOS>ATOM
      1 C1          0.0220    0.0220    0.0480 c3        1 73Q     -0.138400
      2 C2          1.4950   -0.0390    0.0060 cc        1 73Q      0.398600
      3 N1          2.3080   -0.1190    1.0980 nd        1 73Q     -0.514800
      4 N2          3.5860   -0.1640    0.6650 na        1 73Q      0.109400
      5 C3          4.7370   -0.2260    1.5330 c3        1 73Q      0.039600
      6 C4          3.6430   -0.1120   -0.7330 cd        1 73Q      0.104300
      7 N3          4.7660   -0.2940   -1.5900 na        1 73Q     -0.226900
      8 O1          5.9040    0.1950   -1.0740 oh        1 73Q     -0.391300
      9 C5          4.5140    0.1650   -2.9400 ca        1 73Q      0.121600
     10 C6          5.6080    0.4060   -3.7980 ca        1 73Q     -0.140000
     11 C7          5.4040    0.6830   -5.1430 ca        1 73Q     -0.088000
     12 C8          4.1030    0.7270   -5.6570 ca        1 73Q     -0.006600
     13 CL          3.8580    1.0510   -7.3050 cl        1 73Q     -0.079400
     14 C9          3.0090    0.5150   -4.8190 ca        1 73Q     -0.059000
     15 C10         3.1990    0.2480   -3.4580 ca        1 73Q     -0.161600
     16 C11         1.9920    0.0920   -2.6000 c         1 73Q      0.633300
     17 O2          0.8480    0.0920   -3.0750 o         1 73Q     -0.546100
     18 C12         2.3000   -0.0220   -1.1970 cc        1 73Q     -0.352900
     19 H11        -0.3180    0.9170    0.6280 hc        1 73Q      0.064367
     20 H12        -0.3950   -0.8940    0.5370 hc        1 73Q      0.064367
     21 H13        -0.3760    0.0910   -0.9960 hc        1 73Q      0.064367
     22 H31         5.3150   -1.1610    1.3050 h1        1 73Q      0.064700
     23 H32         4.4170   -0.2360    2.6080 h1        1 73Q      0.064700
     24 H33         5.3900    0.6670    1.3400 h1        1 73Q      0.064700
     25 HO1         6.5050   -0.5770   -1.0360 ho        1 73Q      0.432000
     26 H6          6.6360    0.3830   -3.4010 ha        1 73Q      0.149000
     27 H7          6.2680    0.8680   -5.8000 ha        1 73Q      0.154000
     28 H9          1.9760    0.5580   -5.2080 ha        1 73Q      0.178000
@<TRIPOS>BOND
     1    1    2 1   
     2    1   19 1   
     3    1   20 1   
     4    1   21 1   
     5    2    3 2   
     6    2   18 1   
     7    3    4 1   
     8    4    5 1   
     9    4    6 1   
    10    5   22 1   
    11    5   23 1   
    12    5   24 1   
    13    6    7 1   
    14    6   18 2   
    15    7    8 1   
    16    7    9 1   
    17    8   25 1   
    18    9   10 ar  
    19    9   15 ar  
    20   10   11 ar  
    21   10   26 1   
    22   11   12 ar  
    23   11   27 1   
    24   12   13 1   
    25   12   14 ar  
    26   14   15 ar  
    27   14   28 1   
    28   15   16 1   
    29   16   17 2   
    30   16   18 1   
@<TRIPOS>SUBSTRUCTURE
     1 73Q         1 TEMP              0 ****  ****    0 ROOT
