@<TRIPOS>MOLECULE
73V
   71    73     1     0     0
SMALL
bcc


@<TRIPOS>ATOM
      1 C19        -0.4930    0.8410    0.6660 c3        1 73V     -0.104100
      2 C18         0.9810    1.0930    0.4610 c3        1 73V     -0.104400
      3 C17         1.7440    0.6000    1.6850 c3        1 73V      0.105800
      4 N3          3.2200    0.8750    1.6170 ny        1 73V     -0.667800
      5 C10         7.5740    3.3890   -7.1500 ca        1 73V     -0.128300
      6 C15         7.2520    4.7080   -6.8100 ca        1 73V     -0.105000
      7 C14         7.4840    5.7400   -7.7180 ca        1 73V     -0.126500
      8 C13         8.0340    5.4590   -8.9690 ca        1 73V     -0.101000
      9 C12         8.3580    4.1450   -9.3100 ca        1 73V     -0.126500
     10 C11         8.1340    3.1110   -8.4020 ca        1 73V     -0.105000
     11 C9          7.2920    2.2770   -6.2020 c3        1 73V      0.193700
     12 O1          6.0320    0.2630    2.1730 os        1 73V     -0.320600
     13 C3          6.3470   -0.9750    1.5190 cx        1 73V      0.021100
     14 C4          7.8000   -1.1210    1.1640 c         1 73V      0.551100
     15 O4          8.7370   -0.6580    1.7880 o         1 73V     -0.344100
     16 C2          5.4900    0.0610    0.8650 cx        1 73V     -0.005900
     17 C16         4.0010   -0.1150    0.8000 c         1 73V      0.535100
     18 O2          3.4100   -0.9440    0.1290 o         1 73V     -0.351100
     19 N1          8.0880   -1.9640   -0.0420 ny        1 73V     -0.661800
     20 C5          9.1500   -1.3730   -0.9480 c3        1 73V      0.057500
     21 C6          8.6430   -0.0250   -1.5200 c         1 73V      0.679100
     22 O5          7.4250    0.2560   -1.3620 o         1 73V     -0.697100
     23 C20         9.4840   -2.3720   -2.0770 c3        1 73V     -0.088700
     24 C22         8.2790   -2.6610   -2.9630 c3        1 73V     -0.099400
     25 C21        10.0900   -3.6370   -1.5080 c3        1 73V     -0.127100
     26 C23         8.6880   -3.3380   -4.2480 c3        1 73V     -0.095100
     27 N2          9.5140    0.8190   -2.1230 n         1 73V     -0.411800
     28 C7          9.0510    1.9680   -2.9080 c3        1 73V      0.055700
     29 C8          8.2620    1.5390   -4.1420 c         1 73V      0.621100
     30 O7          8.0210    2.5720   -4.9800 os        1 73V     -0.417900
     31 O6          7.8300    0.4110   -4.3960 o         1 73V     -0.555000
     32 C26        10.3080    2.7800   -3.2860 c3        1 73V     -0.082400
     33 C25        11.5130    1.9760   -2.8140 c3        1 73V     -0.091400
     34 C24        10.9670    0.7090   -2.1350 c3        1 73V      0.078000
     35 H191       -0.6990   -0.2490    0.8000 hc        1 73V      0.069033
     36 H192       -0.8760    1.3920    1.5590 hc        1 73V      0.069033
     37 H193       -1.0570    1.1960   -0.2330 hc        1 73V      0.069033
     38 H181        1.1530    2.1920    0.3050 hc        1 73V      0.070200
     39 H182        1.3330    0.5490   -0.4560 hc        1 73V      0.070200
     40 H171        1.3610    1.1220    2.6110 hx        1 73V      0.119200
     41 H172        1.6010   -0.5120    1.8040 hx        1 73V      0.119200
     42 HN3         3.3640    1.8110    1.2080 hn        1 73V      0.476300
     43 H15         6.8190    4.9240   -5.8230 ha        1 73V      0.132000
     44 H14         7.2290    6.7760   -7.4490 ha        1 73V      0.146000
     45 H13         8.2120    6.2730   -9.6880 ha        1 73V      0.149000
     46 H12         8.7910    3.9230  -10.2980 ha        1 73V      0.146000
     47 H11         8.3920    2.0760   -8.6760 ha        1 73V      0.132000
     48 H91         6.2050    2.2320   -5.9260 h1        1 73V      0.066200
     49 H92         7.6240    1.2830   -6.6020 h1        1 73V      0.066200
     50 H3          5.9200   -1.8830    2.0030 h1        1 73V      0.165700
     51 H2          5.8920    0.7200    0.0510 h1        1 73V      0.212700
     52 HN1         8.4150   -2.8970    0.2510 hn        1 73V      0.481800
     53 H5         10.0670   -1.1970   -0.3060 hx        1 73V      0.134700
     54 H20        10.2660   -1.8630   -2.7150 hc        1 73V      0.113700
     55 H221        7.5520   -3.3220   -2.4210 hc        1 73V      0.053700
     56 H222        7.7590   -1.6940   -3.2140 hc        1 73V      0.053700
     57 H211        9.3130   -4.3210   -1.0890 hc        1 73V      0.063033
     58 H212       10.8460   -3.4080   -0.7180 hc        1 73V      0.063033
     59 H213       10.6120   -4.1960   -2.3280 hc        1 73V      0.063033
     60 H231        9.1750   -4.3230   -4.0480 hc        1 73V      0.058033
     61 H232        9.3990   -2.6970   -4.8240 hc        1 73V      0.058033
     62 H233        7.7850   -3.5140   -4.8830 hc        1 73V      0.058033
     63 H7          8.3450    2.5840   -2.2760 h1        1 73V      0.102700
     64 H261       10.2700    3.7790   -2.7830 hc        1 73V      0.093700
     65 H262       10.3410    2.9580   -4.3910 hc        1 73V      0.093700
     66 H251       12.1710    1.6960   -3.6750 hc        1 73V      0.084700
     67 H252       12.1300    2.5660   -2.0910 hc        1 73V      0.084700
     68 H241       11.2910   -0.2030   -2.7080 h1        1 73V      0.061700
     69 H242       11.3420    0.6240   -1.0780 h1        1 73V      0.061700
     70 H32         3.6120    0.8790    2.5700 hn        1 73V      0.476300
     71 H121        7.2310   -2.0630   -0.6090 hn        1 73V      0.481800
@<TRIPOS>BOND
     1    1    2 1   
     2    1   35 1   
     3    1   36 1   
     4    1   37 1   
     5    2    3 1   
     6    2   38 1   
     7    2   39 1   
     8    3    4 1   
     9    3   40 1   
    10    3   41 1   
    11    4   17 1   
    12    4   42 1   
    13    4   70 1   
    14    5    6 ar  
    15    5   10 ar  
    16    5   11 1   
    17    6    7 ar  
    18    6   43 1   
    19    7    8 ar  
    20    7   44 1   
    21    8    9 ar  
    22    8   45 1   
    23    9   10 ar  
    24    9   46 1   
    25   10   47 1   
    26   11   30 1   
    27   11   48 1   
    28   11   49 1   
    29   12   13 1   
    30   12   16 1   
    31   13   14 1   
    32   13   16 1   
    33   13   50 1   
    34   14   15 2   
    35   14   19 1   
    36   16   17 1   
    37   16   51 1   
    38   17   18 2   
    39   19   20 1   
    40   19   52 1   
    41   19   71 1   
    42   20   21 1   
    43   20   23 1   
    44   20   53 1   
    45   21   22 2   
    46   21   27 1   
    47   23   24 1   
    48   23   25 1   
    49   23   54 1   
    50   24   26 1   
    51   24   55 1   
    52   24   56 1   
    53   25   57 1   
    54   25   58 1   
    55   25   59 1   
    56   26   60 1   
    57   26   61 1   
    58   26   62 1   
    59   27   28 1   
    60   27   34 1   
    61   28   29 1   
    62   28   32 1   
    63   28   63 1   
    64   29   30 1   
    65   29   31 2   
    66   32   33 1   
    67   32   64 1   
    68   32   65 1   
    69   33   34 1   
    70   33   66 1   
    71   33   67 1   
    72   34   68 1   
    73   34   69 1   
@<TRIPOS>SUBSTRUCTURE
     1 73V         1 TEMP              0 ****  ****    0 ROOT
