@<TRIPOS>MOLECULE
73V
   71    73     1     0     0
SMALL
bcc


@<TRIPOS>ATOM
      1 C19        -0.4950    0.8210    0.6790 c3        1 73V     -0.104100
      2 C18         0.9770    1.0800    0.4690 c3        1 73V     -0.104400
      3 C17         1.7470    0.6010    1.6940 c3        1 73V      0.106800
      4 N3          3.2210    0.8830    1.6190 n4        1 73V     -0.667800
      5 C10         7.5660    3.3670   -7.1650 ca        1 73V     -0.128300
      6 C15         7.2300    4.6840   -6.8320 ca        1 73V     -0.105000
      7 C14         7.4560    5.7140   -7.7440 ca        1 73V     -0.126500
      8 C13         8.0130    5.4320   -8.9920 ca        1 73V     -0.101000
      9 C12         8.3500    4.1200   -9.3260 ca        1 73V     -0.126500
     10 C11         8.1320    3.0880   -8.4140 ca        1 73V     -0.105000
     11 C9          7.2900    2.2570   -6.2130 c3        1 73V      0.193700
     12 O1          6.0350    0.2870    2.1770 os        1 73V     -0.320600
     13 C3          6.3550   -0.9550    1.5310 cx        1 73V      0.021100
     14 C4          7.8080   -1.0980    1.1750 c         1 73V      0.551100
     15 O4          8.7440   -0.6280    1.7970 o         1 73V     -0.344100
     16 C2          5.4930    0.0730    0.8710 cx        1 73V     -0.005900
     17 C16         4.0050   -0.1090    0.8080 c         1 73V      0.535100
     18 O2          3.4170   -0.9440    0.1430 o         1 73V     -0.351100
     19 N1          8.0980   -1.9460   -0.0270 n4        1 73V     -0.661800
     20 C5          9.1580   -1.3550   -0.9360 c3        1 73V      0.057500
     21 C6          8.6450   -0.0120   -1.5150 c         1 73V      0.679100
     22 O5          7.4260    0.2640   -1.3600 o         1 73V     -0.697100
     23 C20         9.4950   -2.3580   -2.0600 c3        1 73V     -0.088700
     24 C22         8.2910   -2.6590   -2.9430 c3        1 73V     -0.099400
     25 C21        10.1080   -3.6180   -1.4840 c3        1 73V     -0.127100
     26 C23         8.7020   -3.3410   -4.2250 c3        1 73V     -0.095100
     27 N2          9.5130    0.8320   -2.1220 n         1 73V     -0.412800
     28 C7          9.0460    1.9750   -2.9140 c3        1 73V      0.055700
     29 C8          8.2600    1.5350   -4.1470 c         1 73V      0.621100
     30 O7          8.0150    2.5620   -4.9910 os        1 73V     -0.417900
     31 O6          7.8340    0.4040   -4.3940 o         1 73V     -0.555000
     32 C26        10.2990    2.7900   -3.2960 c3        1 73V     -0.082400
     33 C25        11.5080    1.9930   -2.8190 c3        1 73V     -0.091400
     34 C24        10.9660    0.7280   -2.1320 c3        1 73V      0.078000
     35 H191       -1.0640    1.1670   -0.2210 hc        1 73V      0.069033
     36 H192       -0.8790    1.3760    1.5700 hc        1 73V      0.069033
     37 H193       -0.6950   -0.2690    0.8210 hc        1 73V      0.069033
     38 H181        1.1430    2.1780    0.3040 hc        1 73V      0.070200
     39 H182        1.3300    0.5320   -0.4460 hc        1 73V      0.070200
     40 H171        1.6100   -0.5120    1.8220 hx        1 73V      0.119200
     41 H172        1.3630    1.1270    2.6170 hx        1 73V      0.119200
     42 HN3         3.6150    0.8960    2.5710 hn        1 73V      0.476300
     43 H15         6.7920    4.9010   -5.8480 ha        1 73V      0.132000
     44 H14         7.1910    6.7490   -7.4810 ha        1 73V      0.146000
     45 H13         8.1860    6.2450   -9.7140 ha        1 73V      0.149000
     46 H12         8.7880    3.8970  -10.3110 ha        1 73V      0.146000
     47 H11         8.4000    2.0540   -8.6820 ha        1 73V      0.132000
     48 H91         7.6300    1.2630   -6.6070 h1        1 73V      0.066200
     49 H92         6.2030    2.2050   -5.9380 h1        1 73V      0.066200
     50 H3          5.9320   -1.8610    2.0220 h1        1 73V      0.165700
     51 H2          5.8910    0.7280    0.0520 h1        1 73V      0.212700
     52 HN1         8.4280   -2.8760    0.2710 hn        1 73V      0.481800
     53 H5         10.0740   -1.1720   -0.2960 hx        1 73V      0.134700
     54 H20        10.2740   -1.8500   -2.7010 hc        1 73V      0.113700
     55 H221        7.5670   -3.3190   -2.3970 hc        1 73V      0.053700
     56 H222        7.7670   -1.6950   -3.2000 hc        1 73V      0.053700
     57 H211        9.3340   -4.3030   -1.0610 hc        1 73V      0.063033
     58 H212       10.6310   -4.1790   -2.3010 hc        1 73V      0.063033
     59 H213       10.8630   -3.3810   -0.6960 hc        1 73V      0.063033
     60 H231        9.4090   -2.7000   -4.8050 hc        1 73V      0.058033
     61 H232        7.7990   -3.5240   -4.8580 hc        1 73V      0.058033
     62 H233        9.1940   -4.3220   -4.0190 hc        1 73V      0.058033
     63 H7          8.3360    2.5910   -2.2860 h1        1 73V      0.103700
     64 H261       10.2570    3.7910   -2.7970 hc        1 73V      0.093700
     65 H262       10.3320    2.9640   -4.4010 hc        1 73V      0.093700
     66 H251       12.1650    1.7100   -3.6790 hc        1 73V      0.084700
     67 H252       12.1230    2.5900   -2.1000 hc        1 73V      0.084700
     68 H241       11.3410    0.6520   -1.0740 h1        1 73V      0.061700
     69 H242       11.2940   -0.1860   -2.6990 h1        1 73V      0.061700
     70 H32         3.3580    1.8160    1.2030 hn        1 73V      0.476300
     71 H121        7.2410   -2.0500   -0.5920 hn        1 73V      0.481800
@<TRIPOS>BOND
     1    1    2 1   
     2    1   35 1   
     3    1   36 1   
     4    1   37 1   
     5    2    3 1   
     6    2   38 1   
     7    2   39 1   
     8    3    4 1   
     9    3   40 1   
    10    3   41 1   
    11    4   17 1   
    12    4   42 1   
    13    4   70 1   
    14    5    6 ar  
    15    5   10 ar  
    16    5   11 1   
    17    6    7 ar  
    18    6   43 1   
    19    7    8 ar  
    20    7   44 1   
    21    8    9 ar  
    22    8   45 1   
    23    9   10 ar  
    24    9   46 1   
    25   10   47 1   
    26   11   30 1   
    27   11   48 1   
    28   11   49 1   
    29   12   13 1   
    30   12   16 1   
    31   13   14 1   
    32   13   16 1   
    33   13   50 1   
    34   14   15 2   
    35   14   19 1   
    36   16   17 1   
    37   16   51 1   
    38   17   18 2   
    39   19   20 1   
    40   19   52 1   
    41   19   71 1   
    42   20   21 1   
    43   20   23 1   
    44   20   53 1   
    45   21   22 2   
    46   21   27 1   
    47   23   24 1   
    48   23   25 1   
    49   23   54 1   
    50   24   26 1   
    51   24   55 1   
    52   24   56 1   
    53   25   57 1   
    54   25   58 1   
    55   25   59 1   
    56   26   60 1   
    57   26   61 1   
    58   26   62 1   
    59   27   28 1   
    60   27   34 1   
    61   28   29 1   
    62   28   32 1   
    63   28   63 1   
    64   29   30 1   
    65   29   31 2   
    66   32   33 1   
    67   32   64 1   
    68   32   65 1   
    69   33   34 1   
    70   33   66 1   
    71   33   67 1   
    72   34   68 1   
    73   34   69 1   
@<TRIPOS>SUBSTRUCTURE
     1 73V         1 TEMP              0 ****  ****    0 ROOT
