@<TRIPOS>MOLECULE
73V
   71    73     1     0     0
SMALL
bcc


@<TRIPOS>ATOM
      1 C19        -0.4430    0.9070    0.6150 c3        1 73V     -0.104100
      2 C18         1.0380    1.1340    0.4250 c3        1 73V     -0.104400
      3 C17         1.7810    0.6140    1.6500 c3        1 73V      0.105800
      4 N3          3.2630    0.8630    1.5960 n4        1 73V     -0.667800
      5 C10         7.7050    3.3850   -7.1190 ca        1 73V     -0.128300
      6 C15         7.4010    4.7040   -6.7660 ca        1 73V     -0.105500
      7 C14         7.6510    5.7420   -7.6610 ca        1 73V     -0.126500
      8 C13         8.2020    5.4670   -8.9140 ca        1 73V     -0.101000
      9 C12         8.5070    4.1520   -9.2680 ca        1 73V     -0.126500
     10 C11         8.2650    3.1120   -8.3720 ca        1 73V     -0.105500
     11 C9          7.4020    2.2670   -6.1850 c3        1 73V      0.193700
     12 O1          6.0600    0.1970    2.1640 os        1 73V     -0.320600
     13 C3          6.3580   -1.0390    1.5000 cx        1 73V      0.021100
     14 C4          7.8100   -1.2060    1.1520 c         1 73V      0.551100
     15 O4          8.7520   -0.7640    1.7860 o         1 73V     -0.344100
     16 C2          5.5230    0.0170    0.8510 cx        1 73V     -0.004900
     17 C16         4.0320   -0.1330    0.7740 c         1 73V      0.535100
     18 O2          3.4320   -0.9450    0.0920 o         1 73V     -0.351100
     19 N1          8.0920   -2.0440   -0.0600 n4        1 73V     -0.661800
     20 C5          9.1690   -1.4620   -0.9540 c3        1 73V      0.057500
     21 C6          8.6880   -0.1000   -1.5160 c         1 73V      0.679100
     22 O5          7.4740    0.2000   -1.3620 o         1 73V     -0.697100
     23 C20         9.4930   -2.4560   -2.0910 c3        1 73V     -0.088700
     24 C22         8.2890   -2.7170   -2.9860 c3        1 73V     -0.099400
     25 C21        10.0740   -3.7360   -1.5300 c3        1 73V     -0.127100
     26 C23         8.6940   -3.3890   -4.2750 c3        1 73V     -0.095100
     27 N2          9.5770    0.7330   -2.1070 n         1 73V     -0.411800
     28 C7          9.1370    1.8980   -2.8840 c3        1 73V      0.055700
     29 C8          8.3480    1.4940   -4.1260 c         1 73V      0.621100
     30 O7          8.1290    2.5380   -4.9560 os        1 73V     -0.417900
     31 O6          7.8990    0.3750   -4.3920 o         1 73V     -0.555000
     32 C26        10.4100    2.6920   -3.2480 c3        1 73V     -0.082400
     33 C25        11.5990    1.8630   -2.7760 c3        1 73V     -0.091400
     34 C24        11.0280    0.5990   -2.1130 c3        1 73V      0.078000
     35 H191       -0.9930    1.2830   -0.2840 hc        1 73V      0.069033
     36 H192       -0.6700   -0.1800    0.7350 hc        1 73V      0.069033
     37 H193       -0.8230    1.4540    1.5110 hc        1 73V      0.069033
     38 H181        1.2320    2.2310    0.2830 hc        1 73V      0.070200
     39 H182        1.3870    0.5950   -0.4950 hc        1 73V      0.070200
     40 H171        1.6170   -0.4970    1.7550 hx        1 73V      0.119200
     41 H172        1.4000    1.1330    2.5790 hx        1 73V      0.119200
     42 HN3         3.4270    1.8000    1.2000 hn        1 73V      0.476300
     43 H15         6.9680    4.9160   -5.7770 ha        1 73V      0.132000
     44 H14         7.4110    6.7790   -7.3820 ha        1 73V      0.146000
     45 H13         8.3950    6.2870   -9.6230 ha        1 73V      0.149000
     46 H12         8.9400    3.9340  -10.2560 ha        1 73V      0.146000
     47 H11         8.5080    2.0770   -8.6560 ha        1 73V      0.132000
     48 H91         6.3140    2.2340   -5.9140 h1        1 73V      0.066200
     49 H92         7.7220    1.2720   -6.5930 h1        1 73V      0.066200
     50 H3          5.9130   -1.9450    1.9720 h1        1 73V      0.165700
     51 H2          5.9410    0.6770    0.0460 h1        1 73V      0.212700
     52 HN1         7.2370   -2.1230   -0.6320 hn        1 73V      0.481800
     53 H5         10.0860   -1.3070   -0.3060 hx        1 73V      0.134700
     54 H20        10.2870   -1.9550   -2.7190 hc        1 73V      0.113700
     55 H221        7.7870   -1.7390   -3.2320 hc        1 73V      0.053700
     56 H222        7.5470   -3.3700   -2.4540 hc        1 73V      0.053700
     57 H211       10.5920   -4.2970   -2.3520 hc        1 73V      0.063033
     58 H212       10.8290   -3.5270   -0.7330 hc        1 73V      0.063033
     59 H213        9.2830   -4.4110   -1.1220 hc        1 73V      0.063033
     60 H231        7.7910   -3.5440   -4.9170 hc        1 73V      0.058033
     61 H232        9.1630   -4.3840   -4.0800 hc        1 73V      0.058033
     62 H233        9.4190   -2.7550   -4.8410 hc        1 73V      0.058033
     63 H7          8.4380    2.5190   -2.2500 h1        1 73V      0.102700
     64 H261       10.3860    3.6870   -2.7350 hc        1 73V      0.093700
     65 H262       10.4520    2.8800   -4.3510 hc        1 73V      0.093700
     66 H251       12.2210    2.4360   -2.0440 hc        1 73V      0.084700
     67 H252       12.2560    1.5800   -3.6360 hc        1 73V      0.084700
     68 H241       11.3950    0.4980   -1.0540 h1        1 73V      0.061700
     69 H242       11.3390   -0.3130   -2.6920 h1        1 73V      0.061700
     70 H32         3.6460    0.8480    2.5530 hn        1 73V      0.476300
     71 H121        8.4020   -2.9840    0.2270 hn        1 73V      0.481800
@<TRIPOS>BOND
     1    1    2 1   
     2    1   35 1   
     3    1   36 1   
     4    1   37 1   
     5    2    3 1   
     6    2   38 1   
     7    2   39 1   
     8    3    4 1   
     9    3   40 1   
    10    3   41 1   
    11    4   17 1   
    12    4   42 1   
    13    4   70 1   
    14    5    6 ar  
    15    5   10 ar  
    16    5   11 1   
    17    6    7 ar  
    18    6   43 1   
    19    7    8 ar  
    20    7   44 1   
    21    8    9 ar  
    22    8   45 1   
    23    9   10 ar  
    24    9   46 1   
    25   10   47 1   
    26   11   30 1   
    27   11   48 1   
    28   11   49 1   
    29   12   13 1   
    30   12   16 1   
    31   13   14 1   
    32   13   16 1   
    33   13   50 1   
    34   14   15 2   
    35   14   19 1   
    36   16   17 1   
    37   16   51 1   
    38   17   18 2   
    39   19   20 1   
    40   19   52 1   
    41   19   71 1   
    42   20   21 1   
    43   20   23 1   
    44   20   53 1   
    45   21   22 2   
    46   21   27 1   
    47   23   24 1   
    48   23   25 1   
    49   23   54 1   
    50   24   26 1   
    51   24   55 1   
    52   24   56 1   
    53   25   57 1   
    54   25   58 1   
    55   25   59 1   
    56   26   60 1   
    57   26   61 1   
    58   26   62 1   
    59   27   28 1   
    60   27   34 1   
    61   28   29 1   
    62   28   32 1   
    63   28   63 1   
    64   29   30 1   
    65   29   31 2   
    66   32   33 1   
    67   32   64 1   
    68   32   65 1   
    69   33   34 1   
    70   33   66 1   
    71   33   67 1   
    72   34   68 1   
    73   34   69 1   
@<TRIPOS>SUBSTRUCTURE
     1 73V         1 TEMP              0 ****  ****    0 ROOT
