@<TRIPOS>MOLECULE
73V
   69    71     1     0     0
SMALL
bcc


@<TRIPOS>ATOM
      1 C19         8.3430    5.5400   -1.1140 c3        1 73V     -0.093100
      2 C18         7.0770    4.7260   -1.0540 c3        1 73V     -0.100400
      3 C17         7.0180    3.9460    0.2610 c3        1 73V      0.088000
      4 N3          5.8190    3.1710    0.4260 n         1 73V     -0.561900
      5 C10        -6.9120    0.0970    0.8430 ca        1 73V     -0.095300
      6 C15        -6.6140    1.4110    0.4690 ca        1 73V     -0.111500
      7 C14        -7.6390    2.3470    0.3290 ca        1 73V     -0.132500
      8 C13        -8.9620    1.9760    0.5660 ca        1 73V     -0.125000
      9 C12        -9.2620    0.6650    0.9390 ca        1 73V     -0.132500
     10 C11        -8.2420   -0.2740    1.0740 ca        1 73V     -0.111500
     11 C9         -5.8320   -0.9110    1.0380 c3        1 73V      0.185700
     12 O1          3.3070    1.9130    0.7700 os        1 73V     -0.392600
     13 C3          3.5380    1.0620   -0.3640 cx        1 73V      0.008100
     14 C4          2.6220   -0.1190   -0.5550 c         1 73V      0.667100
     15 O4          2.6420   -0.7410   -1.6360 o         1 73V     -0.590100
     16 C2          4.5000    1.1120    0.7750 cx        1 73V      0.010100
     17 C16         5.8280    1.8140    0.6330 c         1 73V      0.667100
     18 O2          6.8790    1.1500    0.7230 o         1 73V     -0.590100
     19 N1          1.8340   -0.5060    0.5120 n         1 73V     -0.532900
     20 C5          0.8400   -1.5400    0.3690 c3        1 73V      0.040700
     21 C6         -0.5590   -0.9420    0.0720 c         1 73V      0.646100
     22 O5         -0.9320    0.1210    0.6070 o         1 73V     -0.608100
     23 C20         0.7030   -2.4380    1.6230 c3        1 73V     -0.064700
     24 C22         0.5040   -1.6290    2.8960 c3        1 73V     -0.089400
     25 C21         1.9050   -3.3520    1.7330 c3        1 73V     -0.091100
     26 C23        -0.1500   -2.4430    3.9840 c3        1 73V     -0.093100
     27 N2         -1.4110   -1.6350   -0.7640 n         1 73V     -0.465800
     28 C7         -2.7560   -1.1680   -1.0530 c3        1 73V      0.068700
     29 C8         -3.7530   -1.5250    0.0440 c         1 73V      0.623100
     30 O7         -4.8190   -0.6690    0.0420 os        1 73V     -0.437900
     31 O6         -3.7300   -2.4390    0.8680 o         1 73V     -0.532000
     32 C26        -3.1970   -1.8480   -2.3720 c3        1 73V     -0.081400
     33 C25        -2.1590   -2.9260   -2.6600 c3        1 73V     -0.091400
     34 C24        -1.0170   -2.7140   -1.6510 c3        1 73V      0.091000
     35 H191        9.2410    4.8790   -1.0520 hc        1 73V      0.038033
     36 H192        8.3890    6.1090   -2.0740 hc        1 73V      0.038033
     37 H193        8.3860    6.2710   -0.2700 hc        1 73V      0.038033
     38 H181        6.1870    5.4040   -1.1400 hc        1 73V      0.045200
     39 H182        7.0420    4.0160   -1.9210 hc        1 73V      0.045200
     40 H171        7.9090    3.2560    0.3210 h1        1 73V      0.062200
     41 H172        7.0880    4.6790    1.1170 h1        1 73V      0.062200
     42 HN3         4.9470    3.6440    0.3710 hn        1 73V      0.323500
     43 H15        -5.5680    1.6970    0.2800 ha        1 73V      0.139000
     44 H14        -7.4010    3.3790    0.0320 ha        1 73V      0.132500
     45 H13        -9.7700    2.7150    0.4580 ha        1 73V      0.131000
     46 H12       -10.3050    0.3710    1.1250 ha        1 73V      0.132500
     47 H11        -8.4820   -1.3080    1.3630 ha        1 73V      0.139000
     48 H91        -6.2110   -1.9610    0.9180 h1        1 73V      0.062200
     49 H92        -5.3600   -0.8040    2.0530 h1        1 73V      0.062200
     50 H3          3.7460    1.5960   -1.3140 h1        1 73V      0.130700
     51 H2          4.5210    0.3080    1.5410 h1        1 73V      0.133700
     52 HN1         1.6830    0.1500    1.2490 hn        1 73V      0.334500
     53 H5          1.1670   -2.2000   -0.4930 h1        1 73V      0.099700
     54 H20        -0.2150   -3.0720    1.4550 hc        1 73V      0.070700
     55 H221        1.4960   -1.2480    3.2590 hc        1 73V      0.052700
     56 H222       -0.1390   -0.7350    2.6720 hc        1 73V      0.052700
     57 H211        2.8420   -2.7640    1.8870 hc        1 73V      0.040700
     58 H212        1.7770   -4.0430    2.6020 hc        1 73V      0.040700
     59 H213        2.0190   -3.9650    0.8070 hc        1 73V      0.040700
     60 H231        0.4720   -3.3330    4.2470 hc        1 73V      0.037033
     61 H232       -0.2770   -1.8190    4.9020 hc        1 73V      0.037033
     62 H233       -1.1570   -2.8000    3.6590 hc        1 73V      0.037033
     63 H7         -2.7560   -0.0410   -1.1480 h1        1 73V      0.106700
     64 H261       -3.2220   -1.0860   -3.1890 hc        1 73V      0.066200
     65 H262       -4.2220   -2.2800   -2.2720 hc        1 73V      0.066200
     66 H251       -1.7730   -2.8430   -3.7050 hc        1 73V      0.060200
     67 H252       -2.5980   -3.9460   -2.5330 hc        1 73V      0.060200
     68 H241       -0.0650   -2.4470   -2.1890 h1        1 73V      0.056200
     69 H242       -0.8370   -3.6480   -1.0500 h1        1 73V      0.056200
@<TRIPOS>BOND
     1    1    2 1   
     2    1   35 1   
     3    1   36 1   
     4    1   37 1   
     5    2    3 1   
     6    2   38 1   
     7    2   39 1   
     8    3    4 1   
     9    3   40 1   
    10    3   41 1   
    11    4   17 1   
    12    4   42 1   
    13    5    6 ar  
    14    5   10 ar  
    15    5   11 1   
    16    6    7 ar  
    17    6   43 1   
    18    7    8 ar  
    19    7   44 1   
    20    8    9 ar  
    21    8   45 1   
    22    9   10 ar  
    23    9   46 1   
    24   10   47 1   
    25   11   30 1   
    26   11   48 1   
    27   11   49 1   
    28   12   13 1   
    29   12   16 1   
    30   13   14 1   
    31   13   16 1   
    32   13   50 1   
    33   14   15 2   
    34   14   19 1   
    35   16   17 1   
    36   16   51 1   
    37   17   18 2   
    38   19   20 1   
    39   19   52 1   
    40   20   21 1   
    41   20   23 1   
    42   20   53 1   
    43   21   22 2   
    44   21   27 1   
    45   23   24 1   
    46   23   25 1   
    47   23   54 1   
    48   24   26 1   
    49   24   55 1   
    50   24   56 1   
    51   25   57 1   
    52   25   58 1   
    53   25   59 1   
    54   26   60 1   
    55   26   61 1   
    56   26   62 1   
    57   27   28 1   
    58   27   34 1   
    59   28   29 1   
    60   28   32 1   
    61   28   63 1   
    62   29   30 1   
    63   29   31 2   
    64   32   33 1   
    65   32   64 1   
    66   32   65 1   
    67   33   34 1   
    68   33   66 1   
    69   33   67 1   
    70   34   68 1   
    71   34   69 1   
@<TRIPOS>SUBSTRUCTURE
     1 73V         1 TEMP              0 ****  ****    0 ROOT
