@<TRIPOS>MOLECULE
740
   59    63     1     0     0
SMALL
bcc


@<TRIPOS>ATOM
      1 C1          1.4830    0.2280    1.3000 ca        1 740      0.148600
      2 C2          1.9790    1.1220    0.3240 ca        1 740     -0.168500
      3 C3          3.3380    1.4060    0.2410 ca        1 740     -0.100500
      4 C4          4.2510    0.8080    1.1130 ca        1 740     -0.135300
      5 C5          3.7730   -0.0870    2.0770 ca        1 740     -0.100500
      6 C6          2.4190   -0.3740    2.1780 ca        1 740     -0.168500
      7 C7          5.7020    1.1010    1.0030 c3        1 740     -0.105100
      8 C8          6.1500    2.3200    1.8010 c         1 740      0.666100
      9 N9          5.6320    2.4300    3.0900 n         1 740     -0.462400
     10 C10         5.8890    3.4460    4.0000 cc        1 740      0.429500
     11 N11         6.6490    4.5660    3.8220 nd        1 740     -0.521100
     12 N12         6.5690    5.3120    4.9460 na        1 740     -0.004100
     13 C13         5.8580    4.6420    5.9610 ca        1 740     -0.048200
     14 C14         5.5450    4.9790    7.2840 ca        1 740     -0.130000
     15 C15         4.7340    4.1150    8.0000 ca        1 740     -0.098000
     16 C16         4.2080    2.9240    7.4270 ca        1 740      0.111600
     17 C17         4.5050    2.5910    6.0910 ca        1 740     -0.085000
     18 C18         5.3370    3.4360    5.3750 ca        1 740     -0.219900
     19 N19         3.3890    2.0700    8.1950 nh        1 740     -0.686900
     20 C22         2.2250    2.6250    8.8440 c3        1 740      0.211800
     21 O24         6.9630    3.1260    1.3260 o         1 740     -0.553100
     22 C9          1.3630    1.4770    9.4050 c3        1 740     -0.062400
     23 S1          3.5870    0.4550    8.3590 s6        1 740      1.453900
     24 C12         2.0950    0.1670    9.1970 c3        1 740     -0.306600
     25 O2          3.5620   -0.2080    7.1200 o         1 740     -0.651800
     26 O3          4.6520    0.1130    9.2010 o         1 740     -0.651800
     27 C11        -0.8080    0.8350    0.7290 c3        1 740      0.188300
     28 N1          0.1000   -0.0180    1.4780 nh        1 740     -0.639000
     29 C19        -0.2880   -1.4230    1.4850 c3        1 740      0.188300
     30 C20        -1.7360   -1.6360    1.9260 c3        1 740     -0.080900
     31 C21        -2.6860   -0.7880    1.1080 c3        1 740     -0.079400
     32 C23        -2.2670    0.6650    1.1530 c3        1 740     -0.080900
     33 H71         5.9790    1.2950   -0.0700 hc        1 740      0.083700
     34 H72         6.3080    0.2240    1.3580 hc        1 740      0.083700
     35 H5          4.4780   -0.5770    2.7670 ha        1 740      0.137000
     36 H6          2.0810   -1.0660    2.9650 ha        1 740      0.140000
     37 H2          1.3000    1.6100   -0.3920 ha        1 740      0.140000
     38 H3          3.6960    2.1100   -0.5270 ha        1 740      0.137000
     39 H191       -0.1580   -1.8750    0.4570 h1        1 740      0.038200
     40 H192        0.3880   -1.9790    2.1920 h1        1 740      0.038200
     41 H201       -1.9820   -2.7220    1.8020 hc        1 740      0.049450
     42 H202       -1.8430   -1.3810    3.0120 hc        1 740      0.049450
     43 H211       -2.6900   -1.1460    0.0440 hc        1 740      0.042700
     44 H212       -3.7290   -0.8960    1.5030 hc        1 740      0.042700
     45 H231       -2.4070    1.0650    2.1910 hc        1 740      0.049450
     46 H232       -2.9040    1.2730    0.4620 hc        1 740      0.049450
     47 H112       -0.7360    0.6330   -0.3810 h1        1 740      0.038200
     48 HN9         4.9350    1.7760    3.3750 hn        1 740      0.336500
     49 H12         7.3390    5.9170    5.1350 hn        1 740      0.309700
     50 H14         5.9330    5.8990    7.7430 ha        1 740      0.146000
     51 H15         4.4920    4.3610    9.0470 ha        1 740      0.141000
     52 H17         4.1020    1.6740    5.6280 ha        1 740      0.164000
     53 H221        1.6260    3.2360    8.1130 h1        1 740      0.055700
     54 H222        2.5410    3.3100    9.6810 h1        1 740      0.055700
     55 H91         1.1640    1.6560   10.4910 hc        1 740      0.064700
     56 H92         0.3730    1.4630    8.8820 hc        1 740      0.064700
     57 H121        1.4490   -0.5460    8.6240 h1        1 740      0.124200
     58 H122        2.2880   -0.3240   10.1860 h1        1 740      0.124200
     59 H111       -0.5050    1.9050    0.9090 h1        1 740      0.038200
@<TRIPOS>BOND
     1    1    2 ar  
     2    1    6 ar  
     3    1   28 1   
     4    2    3 ar  
     5    2   37 1   
     6    3    4 ar  
     7    3   38 1   
     8    4    5 ar  
     9    4    7 1   
    10    5    6 ar  
    11    5   35 1   
    12    6   36 1   
    13    7    8 1   
    14    7   33 1   
    15    7   34 1   
    16    8    9 1   
    17    8   21 2   
    18    9   10 1   
    19    9   48 1   
    20   10   11 2   
    21   10   18 1   
    22   11   12 1   
    23   12   13 1   
    24   12   49 1   
    25   13   14 ar  
    26   13   18 ar  
    27   14   15 ar  
    28   14   50 1   
    29   15   16 ar  
    30   15   51 1   
    31   16   17 ar  
    32   16   19 1   
    33   17   18 ar  
    34   17   52 1   
    35   19   20 1   
    36   19   23 1   
    37   20   22 1   
    38   20   53 1   
    39   20   54 1   
    40   22   24 1   
    41   22   55 1   
    42   22   56 1   
    43   23   24 1   
    44   23   25 2   
    45   23   26 2   
    46   24   57 1   
    47   24   58 1   
    48   27   28 1   
    49   27   32 1   
    50   27   47 1   
    51   27   59 1   
    52   28   29 1   
    53   29   30 1   
    54   29   39 1   
    55   29   40 1   
    56   30   31 1   
    57   30   41 1   
    58   30   42 1   
    59   31   32 1   
    60   31   43 1   
    61   31   44 1   
    62   32   45 1   
    63   32   46 1   
@<TRIPOS>SUBSTRUCTURE
     1 740         1 TEMP              0 ****  ****    0 ROOT
