@<TRIPOS>MOLECULE
740
   59    55     1     0     0
SMALL
bcc


@<TRIPOS>ATOM
      1 C1         -2.4020   -1.1730   -4.4030 c1        1 740      0.093000
      2 C2         -1.0350   -1.1850   -4.6700 c1        1 740     -0.124000
      3 C3         -0.1200   -1.2350   -3.6210 c1        1 740     -0.124000
      4 C4         -0.5750   -1.2720   -2.3000 c1        1 740     -0.144000
      5 C5         -1.9440   -1.2590   -2.0320 c1        1 740     -0.102000
      6 C6         -2.8570   -1.2100   -3.0800 c1        1 740     -0.196000
      7 C7          0.4280   -1.4120   -1.1480 c3        1 740     -0.138000
      8 C8          0.7200   -0.0120   -0.5440 c2        1 740      0.308000
      9 N9          1.3040    0.1000    0.7950 n         1 740     -0.301000
     10 C10         1.6300    1.4160    1.3410 c2        1 740      0.041000
     11 N11         1.5040    2.5400    0.6010 n2        1 740     -0.048000
     12 N12         2.0560    3.5870    1.3140 n2        1 740     -0.180000
     13 C13         2.5240    3.0910    2.5060 c1        1 740      0.001000
     14 C14         3.1530    3.7140    3.6030 c1        1 740     -0.124000
     15 C15         3.5100    2.9700    4.7090 c1        1 740     -0.124000
     16 C16         3.2510    1.6110    4.7430 c1        1 740      0.025000
     17 C17         2.6320    0.9960    3.6640 c1        1 740     -0.062000
     18 C18         2.2680    1.7560    2.5350 c1        1 740     -0.141000
     19 N19         3.7580    0.8950    5.8630 n3        1 740     -0.786000
     20 C22         4.9860    0.4380    6.0040 c3        1 740     -0.023000
     21 O24         0.5060    0.9860   -1.1970 o         1 740     -0.315000
     22 C9          4.9770   -0.7150    7.2620 c3        1 740     -0.140000
     23 S1          3.0270    0.7590    7.3630 s4        1 740      2.026800
     24 C12         4.1630   -0.2520    8.2500 c2        1 740     -0.846000
     25 O2          2.8450    2.0440    7.9920 o         1 740     -0.537900
     26 O3          1.7780    0.1040    7.2420 o         1 740     -0.537900
     27 C11        -4.2870   -2.3560   -5.4640 c3        1 740     -0.038500
     28 N1         -3.3450   -1.0950   -5.4880 n3        1 740     -0.253000
     29 C19        -4.4680   -0.0460   -5.1460 c3        1 740     -0.038500
     30 C20        -5.5530    0.0200   -6.1860 c3        1 740     -0.170000
     31 C21        -5.5720   -1.0720   -6.9440 c3        1 740     -0.157000
     32 C23        -5.3730   -2.3050   -6.5080 c3        1 740     -0.170000
     33 H71         0.0470   -2.0030   -0.4460 hc        1 740      0.122500
     34 H72         1.2600   -1.8020   -1.4870 hc        1 740      0.122500
     35 H5         -2.2720   -1.2870   -1.0790 ha        1 740      0.127000
     36 H6         -3.8130   -1.2010   -2.8920 ha        1 740      0.134000
     37 H2         -0.7180   -1.1590   -5.5980 ha        1 740      0.147750
     38 H3          0.8750   -1.2440   -3.8150 ha        1 740      0.147750
     39 H191       -4.8760   -0.2900   -4.2750 h1        1 740      0.083500
     40 H192       -4.0550    0.8480   -5.0640 h1        1 740      0.083500
     41 H201       -5.4010    0.7960   -6.7520 hc        1 740      0.090750
     42 H202       -6.4170    0.1130   -5.7410 hc        1 740      0.090750
     43 H211       -4.8840   -0.9180   -7.6700 hc        1 740      0.082500
     44 H212       -6.4360   -1.0790   -7.3760 hc        1 740      0.082500
     45 H231       -5.1110   -2.8830   -7.2740 hc        1 740      0.090750
     46 H232       -6.2060   -2.6440   -6.1220 hc        1 740      0.090750
     47 H111       -4.7070   -2.4200   -4.5760 h1        1 740      0.083500
     48 H112       -3.7570   -3.1400   -5.6110 h1        1 740      0.083500
     49 HN9         1.3890   -0.6280    1.3050 hn        1 740      0.245000
     50 H12         2.1010    4.4510    1.0430 DU        1 740      0.265000
     51 H14         3.3360    4.6720    3.5810 ha        1 740      0.147750
     52 H15         3.9440    3.4020    5.4670 ha        1 740      0.147750
     53 H17         2.4490    0.0360    3.6870 ha        1 740      0.141000
     54 H221        5.2820    0.0170    5.1680 h1        1 740      0.093000
     55 H222        5.5810    1.1630    6.2320 h1        1 740      0.093000
     56 H91         5.8830   -0.8340    7.6080 hc        1 740      0.103500
     57 H92         4.6320   -1.5820    6.9210 hc        1 740      0.103500
     58 H121        4.7310    0.1320    8.9670 ha        1 740      0.162500
     59 H122        3.6530   -0.9420    8.7430 ha        1 740      0.162500
@<TRIPOS>BOND
     1    1    6 1   
     2    1   28 1   
     3    2    3 1   
     4    2   37 1   
     5    3   38 1   
     6    4    5 1   
     7    4    7 1   
     8    5   35 1   
     9    6   36 1   
    10    7    8 1   
    11    7   33 1   
    12    7   34 1   
    13    8    9 1   
    14    8   21 1   
    15    9   10 1   
    16    9   49 1   
    17   10   11 1   
    18   10   18 1   
    19   11   12 1   
    20   12   13 1   
    21   13   18 1   
    22   14   15 1   
    23   14   51 1   
    24   15   52 1   
    25   16   17 1   
    26   16   19 1   
    27   17   53 1   
    28   19   20 1   
    29   19   23 1   
    30   20   22 1   
    31   20   54 1   
    32   20   55 1   
    33   22   24 1   
    34   22   56 1   
    35   22   57 1   
    36   23   25 1   
    37   23   26 1   
    38   24   58 1   
    39   24   59 1   
    40   27   28 1   
    41   27   32 1   
    42   27   47 1   
    43   27   48 1   
    44   28   29 1   
    45   29   30 1   
    46   29   39 1   
    47   29   40 1   
    48   30   31 1   
    49   30   41 1   
    50   30   42 1   
    51   31   32 1   
    52   31   43 1   
    53   31   44 1   
    54   32   45 1   
    55   32   46 1   
@<TRIPOS>SUBSTRUCTURE
     1 740         1 TEMP              0 ****  ****    0 ROOT
