@<TRIPOS>MOLECULE
740
   59    63     1     0     0
SMALL
bcc


@<TRIPOS>ATOM
      1 C1          1.4450    0.1860    1.3350 ca        1 740      0.148600
      2 C2          1.9780    1.0290    0.3330 ca        1 740     -0.169000
      3 C3          3.3480    1.2540    0.2450 ca        1 740     -0.100500
      4 C4          4.2350    0.6450    1.1360 ca        1 740     -0.135300
      5 C5          3.7190   -0.2010    2.1250 ca        1 740     -0.100500
      6 C6          2.3540   -0.4270    2.2320 ca        1 740     -0.169000
      7 C7          5.6970    0.8740    1.0190 c3        1 740     -0.105100
      8 C8          6.1950    2.0950    1.7830 c         1 740      0.666100
      9 N9          5.6810    2.2650    3.0670 ns        1 740     -0.462400
     10 C10         5.9810    3.2950    3.9470 cc        1 740      0.429500
     11 N11         6.7910    4.3740    3.7400 nd        1 740     -0.521100
     12 N12         6.7420    5.1550    4.8410 na        1 740     -0.004100
     13 C13         5.9970    4.5500    5.8720 ca        1 740     -0.048200
     14 C14         5.6950    4.9400    7.1820 ca        1 740     -0.130000
     15 C15         4.8430    4.1350    7.9200 ca        1 740     -0.098000
     16 C16         4.2650    2.9520    7.3800 ca        1 740      0.111600
     17 C17         4.5510    2.5670    6.0560 ca        1 740     -0.084000
     18 C18         5.4240    3.3510    5.3190 ca        1 740     -0.219900
     19 N19         3.4050    2.1600    8.1680 nh        1 740     -0.686900
     20 C22         2.2640    2.7870    8.7940 c3        1 740      0.211800
     21 O24         7.0420    2.8520    1.2860 o         1 740     -0.553100
     22 C9          1.3480    1.6960    9.3840 c3        1 740     -0.062400
     23 S1          3.5280    0.5430    8.3830 s6        1 740      1.453900
     24 C12         2.0220    0.3490    9.2200 c3        1 740     -0.306600
     25 O2          3.4790   -0.1550    7.1640 o         1 740     -0.651800
     26 O3          4.5730    0.1800    9.2420 o         1 740     -0.651800
     27 C11        -0.8190    0.8710    0.7410 c3        1 740      0.188300
     28 N1          0.0530    0.0040    1.5180 nh        1 740     -0.639000
     29 C19        -0.3940   -1.3820    1.5660 c3        1 740      0.188300
     30 C20        -1.8500   -1.5220    2.0100 c3        1 740     -0.080900
     31 C21        -2.7630   -0.6610    1.1650 c3        1 740     -0.079400
     32 C23        -2.2840    0.7740    1.1680 c3        1 740     -0.080900
     33 H71         5.9820    1.0240   -0.0580 hc        1 740      0.083700
     34 H72         6.2660   -0.0180    1.4010 hc        1 740      0.083700
     35 H5          4.4020   -0.6990    2.8310 ha        1 740      0.137000
     36 H6          1.9870   -1.0810    3.0390 ha        1 740      0.140000
     37 H2          1.3200    1.5240   -0.3970 ha        1 740      0.140000
     38 H3          3.7360    1.9190   -0.5430 ha        1 740      0.137000
     39 H191       -0.2820   -1.8710    0.5530 h1        1 740      0.038200
     40 H192        0.2580   -1.9440    2.2910 h1        1 740      0.038200
     41 H201       -2.1410   -2.6000    1.9200 hc        1 740      0.049450
     42 H202       -1.9470   -1.2290    3.0880 hc        1 740      0.049450
     43 H211       -2.7810   -1.0500    0.1130 hc        1 740      0.042700
     44 H212       -3.8100   -0.7130    1.5620 hc        1 740      0.042700
     45 H231       -2.8950    1.3880    0.4570 hc        1 740      0.049450
     46 H232       -2.4080    1.2110    2.1930 hc        1 740      0.049450
     47 H112       -0.4720    1.9330    0.8900 h1        1 740      0.038200
     48 HN9         4.9560    1.6500    3.3690 hn        1 740      0.336500
     49 H12         7.5380    5.7310    5.0160 hn        1 740      0.309700
     50 H14         6.1230    5.8540    7.6160 ha        1 740      0.145000
     51 H15         4.6080    4.4230    8.9580 ha        1 740      0.141000
     52 H17         4.1080    1.6560    5.6180 ha        1 740      0.164000
     53 H221        2.6080    3.4820    9.6120 h1        1 740      0.055700
     54 H222        1.6980    3.4020    8.0410 h1        1 740      0.055700
     55 H91         0.3620    1.7110    8.8560 hc        1 740      0.064700
     56 H92         1.1530    1.9170   10.4630 hc        1 740      0.064700
     57 H121        2.1870   -0.1200   10.2240 h1        1 740      0.124200
     58 H122        1.3460   -0.3510    8.6650 h1        1 740      0.124200
     59 H111       -0.7550    0.6330   -0.3620 h1        1 740      0.038200
@<TRIPOS>BOND
     1    1    2 ar  
     2    1    6 ar  
     3    1   28 1   
     4    2    3 ar  
     5    2   37 1   
     6    3    4 ar  
     7    3   38 1   
     8    4    5 ar  
     9    4    7 1   
    10    5    6 ar  
    11    5   35 1   
    12    6   36 1   
    13    7    8 1   
    14    7   33 1   
    15    7   34 1   
    16    8    9 1   
    17    8   21 2   
    18    9   10 1   
    19    9   48 1   
    20   10   11 2   
    21   10   18 1   
    22   11   12 1   
    23   12   13 1   
    24   12   49 1   
    25   13   14 ar  
    26   13   18 ar  
    27   14   15 ar  
    28   14   50 1   
    29   15   16 ar  
    30   15   51 1   
    31   16   17 ar  
    32   16   19 1   
    33   17   18 ar  
    34   17   52 1   
    35   19   20 1   
    36   19   23 1   
    37   20   22 1   
    38   20   53 1   
    39   20   54 1   
    40   22   24 1   
    41   22   55 1   
    42   22   56 1   
    43   23   24 1   
    44   23   25 2   
    45   23   26 2   
    46   24   57 1   
    47   24   58 1   
    48   27   28 1   
    49   27   32 1   
    50   27   47 1   
    51   27   59 1   
    52   28   29 1   
    53   29   30 1   
    54   29   39 1   
    55   29   40 1   
    56   30   31 1   
    57   30   41 1   
    58   30   42 1   
    59   31   32 1   
    60   31   43 1   
    61   31   44 1   
    62   32   45 1   
    63   32   46 1   
@<TRIPOS>SUBSTRUCTURE
     1 740         1 TEMP              0 ****  ****    0 ROOT
