@<TRIPOS>MOLECULE
740
   59    63     1     0     0
SMALL
bcc


@<TRIPOS>ATOM
      1 C1         -4.0030   -0.6250   -0.4520 ca        1 740      0.148600
      2 C2         -4.3930    0.2200   -1.5160 ca        1 740     -0.169000
      3 C3         -3.7210    0.1910   -2.7330 ca        1 740     -0.100500
      4 C4         -2.6500   -0.6810   -2.9420 ca        1 740     -0.135300
      5 C5         -2.2620   -1.5310   -1.8990 ca        1 740     -0.100500
      6 C6         -2.9170   -1.5070   -0.6750 ca        1 740     -0.169000
      7 C7         -1.9540   -0.7210   -4.2520 c3        1 740     -0.105100
      8 C8         -0.8100    0.2790   -4.3750 c         1 740      0.666100
      9 N9          0.0340    0.3810   -3.2720 n         1 740     -0.462400
     10 C10         1.1350    1.2180   -3.1480 cc        1 740      0.429500
     11 N11         1.6000    2.1390   -4.0410 nd        1 740     -0.521100
     12 N12         2.6550    2.7720   -3.4830 na        1 740     -0.004100
     13 C13         3.0080    2.1960   -2.2470 ca        1 740     -0.048200
     14 C14         4.0270    2.4710   -1.3260 ca        1 740     -0.131000
     15 C15         4.0400    1.7580   -0.1390 ca        1 740     -0.098000
     16 C16         3.0490    0.7840    0.1680 ca        1 740      0.111600
     17 C17         2.0110    0.5190   -0.7470 ca        1 740     -0.084000
     18 C18         2.0060    1.2080   -1.9490 ca        1 740     -0.219900
     19 N19         3.1030    0.0790    1.3880 nh        1 740     -0.686900
     20 C22         3.1690    0.8300    2.6200 c3        1 740      0.211800
     21 O24        -0.6360    0.9170   -5.4240 o         1 740     -0.553100
     22 C9          2.9680   -0.1310    3.8090 c3        1 740     -0.062400
     23 S1          3.0100   -1.5450    1.5540 s6        1 740      1.453900
     24 C12         2.8970   -1.5510    3.2850 c3        1 740     -0.306600
     25 O2          1.8260   -2.0650    1.0070 o         1 740     -0.651800
     26 O3          4.1860   -2.2050    1.1770 o         1 740     -0.651800
     27 C11        -5.5130    0.5440    1.0640 c3        1 740      0.188300
     28 N1         -4.5990   -0.5630    0.8310 nh        1 740     -0.639000
     29 C19        -5.0720   -1.8340    1.3620 c3        1 740      0.188300
     30 C20        -5.4730   -1.7500    2.8350 c3        1 740     -0.080900
     31 C21        -6.4670   -0.6330    3.0670 c3        1 740     -0.079400
     32 C23        -5.9250    0.6740    2.5310 c3        1 740     -0.080900
     33 H71        -1.5290   -1.7440   -4.4410 hc        1 740      0.083700
     34 H72        -2.6760   -0.4930   -5.0830 hc        1 740      0.083700
     35 H5         -1.4260   -2.2340   -2.0470 ha        1 740      0.137000
     36 H6         -2.5650   -2.1750    0.1270 ha        1 740      0.140000
     37 H2         -5.2370    0.9170   -1.4020 ha        1 740      0.140000
     38 H3         -4.0440    0.8630   -3.5440 ha        1 740      0.137000
     39 H191       -5.9610   -2.2050    0.7720 h1        1 740      0.038200
     40 H192       -4.2500   -2.5950    1.2570 h1        1 740      0.038200
     41 H201       -5.9190   -2.7330    3.1320 hc        1 740      0.049450
     42 H202       -4.5620   -1.5810    3.4660 hc        1 740      0.049450
     43 H211       -7.4350   -0.8780    2.5550 hc        1 740      0.042700
     44 H212       -6.6820   -0.5350    4.1620 hc        1 740      0.042700
     45 H231       -5.0430    0.9950    3.1430 hc        1 740      0.049450
     46 H232       -6.7040    1.4750    2.6040 hc        1 740      0.049450
     47 H112       -6.4510    0.4370    0.4410 h1        1 740      0.038200
     48 HN9        -0.2110   -0.1180   -2.4430 hn        1 740      0.336500
     49 H12         3.3270    3.1580   -4.1110 hn        1 740      0.309700
     50 H14         4.7970    3.2250   -1.5390 ha        1 740      0.145000
     51 H15         4.8450    1.9540    0.5880 ha        1 740      0.141000
     52 H17         1.2310   -0.2290   -0.5240 ha        1 740      0.164000
     53 H221        4.1700    1.3410    2.7060 h1        1 740      0.055700
     54 H222        2.3770    1.6300    2.6310 h1        1 740      0.055700
     55 H91         3.8140   -0.0130    4.5310 hc        1 740      0.064700
     56 H92         2.0260    0.1380    4.3510 hc        1 740      0.064700
     57 H121        3.7220   -2.1640    3.7320 h1        1 740      0.124200
     58 H122        1.9430   -2.0340    3.6190 h1        1 740      0.124200
     59 H111       -4.9930    1.4940    0.7520 h1        1 740      0.038200
@<TRIPOS>BOND
     1    1    2 ar  
     2    1    6 ar  
     3    1   28 1   
     4    2    3 ar  
     5    2   37 1   
     6    3    4 ar  
     7    3   38 1   
     8    4    5 ar  
     9    4    7 1   
    10    5    6 ar  
    11    5   35 1   
    12    6   36 1   
    13    7    8 1   
    14    7   33 1   
    15    7   34 1   
    16    8    9 1   
    17    8   21 2   
    18    9   10 1   
    19    9   48 1   
    20   10   11 2   
    21   10   18 1   
    22   11   12 1   
    23   12   13 1   
    24   12   49 1   
    25   13   14 ar  
    26   13   18 ar  
    27   14   15 ar  
    28   14   50 1   
    29   15   16 ar  
    30   15   51 1   
    31   16   17 ar  
    32   16   19 1   
    33   17   18 ar  
    34   17   52 1   
    35   19   20 1   
    36   19   23 1   
    37   20   22 1   
    38   20   53 1   
    39   20   54 1   
    40   22   24 1   
    41   22   55 1   
    42   22   56 1   
    43   23   24 1   
    44   23   25 2   
    45   23   26 2   
    46   24   57 1   
    47   24   58 1   
    48   27   28 1   
    49   27   32 1   
    50   27   47 1   
    51   27   59 1   
    52   28   29 1   
    53   29   30 1   
    54   29   39 1   
    55   29   40 1   
    56   30   31 1   
    57   30   41 1   
    58   30   42 1   
    59   31   32 1   
    60   31   43 1   
    61   31   44 1   
    62   32   45 1   
    63   32   46 1   
@<TRIPOS>SUBSTRUCTURE
     1 740         1 TEMP              0 ****  ****    0 ROOT
