@<TRIPOS>MOLECULE
740
   60    64     1     0     0
SMALL
bcc


@<TRIPOS>ATOM
      1 C1          0.9970    0.0580    1.5970 ca        1 740      0.221600
      2 C2          1.9940    0.1080    2.6140 ca        1 740     -0.207500
      3 C3          1.6530    0.1330    3.9560 ca        1 740     -0.075000
      4 C4          0.3110    0.1110    4.3600 ca        1 740     -0.265300
      5 C5         -0.6810    0.0000    3.3770 ca        1 740     -0.075000
      6 C6         -0.3590   -0.0260    2.0320 ca        1 740     -0.207500
      7 C7         -0.0480    0.1120    5.7950 c3        1 740     -0.076100
      8 C8         -0.5790    1.4380    6.2760 c         1 740      0.551100
      9 N9         -0.0020    2.6650    5.5630 n4        1 740     -0.576800
     10 C10         0.5830    3.6070    6.4860 cc        1 740      0.305800
     11 N11        -0.0940    4.6500    7.0830 nd        1 740     -0.422100
     12 N12         0.7570    5.2780    7.8640 na        1 740      0.048900
     13 C13         2.0430    4.6960    7.8470 ca        1 740     -0.082200
     14 C14         3.2450    4.9990    8.5030 ca        1 740     -0.072000
     15 C15         4.3390    4.1940    8.2500 ca        1 740     -0.126000
     16 C16         4.2810    3.0780    7.3540 ca        1 740      0.221600
     17 C17         3.0720    2.7740    6.6990 ca        1 740     -0.181000
     18 C18         1.9680    3.5810    6.9410 ca        1 740     -0.137900
     19 N19         5.4100    2.2880    7.1210 nh        1 740     -0.662900
     20 C22         6.4830    2.2680    8.0950 c3        1 740      0.191800
     21 O24        -1.4060    1.6560    7.1420 o         1 740     -0.404100
     22 C9          7.3940    1.0560    7.8180 c3        1 740     -0.063400
     23 S1          5.6590    1.2750    5.8290 s6        1 740      1.444900
     24 C12         7.0310    0.4690    6.4680 c3        1 740     -0.315600
     25 O2          4.5730    0.3920    5.6730 o         1 740     -0.650300
     26 O3          5.9950    1.9810    4.6710 o         1 740     -0.650300
     27 C11         2.7190   -0.0400   -0.1150 c3        1 740      0.200300
     28 N1          1.3250    0.1500    0.2490 nh        1 740     -0.642000
     29 C19         0.2980   -0.2060   -0.7170 c3        1 740      0.200300
     30 C20         0.6700   -0.0050   -2.1820 c3        1 740     -0.085400
     31 C21         2.0520   -0.5320   -2.4870 c3        1 740     -0.083400
     32 C23         3.0510    0.1600   -1.5900 c3        1 740     -0.085400
     33 H71        -0.8500   -0.6510    6.0090 hc        1 740      0.119700
     34 H72         0.8450   -0.1400    6.4370 hc        1 740      0.119700
     35 H5         -1.7390   -0.0860    3.6760 ha        1 740      0.149500
     36 H6         -1.1800   -0.1340    1.3070 ha        1 740      0.153500
     37 H2          3.0650    0.1080    2.3580 ha        1 740      0.153500
     38 H3          2.4640    0.1370    4.7090 ha        1 740      0.149500
     39 H191       -0.6040    0.4430   -0.5130 h1        1 740      0.045700
     40 H192       -0.0040   -1.2840   -0.5640 h1        1 740      0.045700
     41 H201        0.6200    1.0860   -2.4390 hc        1 740      0.058950
     42 H202       -0.0960   -0.5360   -2.8050 hc        1 740      0.058950
     43 H211        2.0880   -1.6400   -2.3230 hc        1 740      0.055200
     44 H212        2.3060   -0.3410   -3.5620 hc        1 740      0.055200
     45 H231        4.0810   -0.2450   -1.7670 hc        1 740      0.058950
     46 H232        3.0710    1.2560   -1.8270 hc        1 740      0.058950
     47 HN9        -0.7540    3.1180    5.0280 hn        1 740      0.476300
     48 H12         0.4610    6.0720    8.3930 hn        1 740      0.359700
     49 H14         3.3180    5.8510    9.1960 ha        1 740      0.166000
     50 H15         5.2900    4.4310    8.7560 ha        1 740      0.162000
     51 H17         2.9780    1.9140    6.0150 ha        1 740      0.164000
     52 H221        6.0660    2.2010    9.1380 h1        1 740      0.068200
     53 H222        7.0830    3.2200    8.0220 h1        1 740      0.068200
     54 H91         7.2630    0.2930    8.6270 hc        1 740      0.080200
     55 H92         8.4640    1.3840    7.8400 hc        1 740      0.080200
     56 H121        6.8490   -0.6340    6.5710 h1        1 740      0.141200
     57 H122        7.9080    0.5580    5.7710 h1        1 740      0.141200
     58 H111        3.0500   -1.0760    0.1920 h1        1 740      0.045700
     59 H921        0.7370    2.3570    4.9090 hn        1 740      0.476300
     60 H112        3.3300    0.7100    0.4680 h1        1 740      0.045700
@<TRIPOS>BOND
     1    1    2 ar  
     2    1    6 ar  
     3    1   28 1   
     4    2    3 ar  
     5    2   37 1   
     6    3    4 ar  
     7    3   38 1   
     8    4    5 ar  
     9    4    7 1   
    10    5    6 ar  
    11    5   35 1   
    12    6   36 1   
    13    7    8 1   
    14    7   33 1   
    15    7   34 1   
    16    8    9 1   
    17    8   21 2   
    18    9   10 1   
    19    9   47 1   
    20    9   59 1   
    21   10   11 2   
    22   10   18 1   
    23   11   12 1   
    24   12   13 1   
    25   12   48 1   
    26   13   14 ar  
    27   13   18 ar  
    28   14   15 ar  
    29   14   49 1   
    30   15   16 ar  
    31   15   50 1   
    32   16   17 ar  
    33   16   19 1   
    34   17   18 ar  
    35   17   51 1   
    36   19   20 1   
    37   19   23 1   
    38   20   22 1   
    39   20   52 1   
    40   20   53 1   
    41   22   24 1   
    42   22   54 1   
    43   22   55 1   
    44   23   24 1   
    45   23   25 2   
    46   23   26 2   
    47   24   56 1   
    48   24   57 1   
    49   27   28 1   
    50   27   32 1   
    51   27   58 1   
    52   27   60 1   
    53   28   29 1   
    54   29   30 1   
    55   29   39 1   
    56   29   40 1   
    57   30   31 1   
    58   30   41 1   
    59   30   42 1   
    60   31   32 1   
    61   31   43 1   
    62   31   44 1   
    63   32   45 1   
    64   32   46 1   
@<TRIPOS>SUBSTRUCTURE
     1 740         1 TEMP              0 ****  ****    0 ROOT
