@<TRIPOS>MOLECULE
741
   69    72     1     0     0
SMALL
bcc


@<TRIPOS>ATOM
      1 C1          0.2810    0.1260   -0.0150 ca        1 741      0.187100
      2 C2          1.7140   -0.0110    0.1270 ca        1 741      0.138100
      3 C3          2.2710   -0.2470    1.3570 ca        1 741     -0.225300
      4 C4          1.4400   -0.3420    2.5240 ca        1 741      0.429600
      5 C5          0.0220   -0.1690    2.3860 ca        1 741     -0.112300
      6 C6         -0.5320    0.0430    1.0950 ca        1 741     -0.244000
      7 N7          2.0440   -0.5960    3.7330 nb        1 741     -0.604000
      8 C8          1.2920   -0.6700    4.8160 ca        1 741      0.451200
      9 C9         -0.1290   -0.4810    4.8090 ca        1 741     -0.062300
     10 C10        -0.7530   -0.2220    3.5880 ca        1 741      0.033600
     11 O11        -0.1360    0.3300   -1.3000 os        1 741     -0.287900
     12 O12         2.4020    0.1110   -1.0580 os        1 741     -0.294900
     13 C13         3.8310    0.0040   -0.9750 c3        1 741      0.127400
     14 C14         4.3080    0.1930   -2.4100 c3        1 741     -0.117400
     15 C15         5.8310    0.2060   -2.4320 c3        1 741      0.109800
     16 C16        -1.5450    0.4390   -1.5180 c3        1 741      0.100700
     17 N17        -2.1970    0.0400    3.5580 n4        1 741     -0.492800
     18 C18        -3.0400   -1.1560    3.4350 ca        1 741     -0.106400
     19 C19        -4.2490   -1.2130    4.1620 ca        1 741     -0.083000
     20 C20        -5.0820   -2.2990    3.9890 ca        1 741     -0.112000
     21 C21        -4.7610   -3.3700    3.1170 ca        1 741      0.010900
     22 C22        -3.5180   -3.3170    2.4570 ca        1 741      0.006400
     23 C23        -2.6700   -2.2150    2.5980 ca        1 741     -0.066000
     24 CL24       -2.9700   -4.5860    1.4840 cl        1 741     -0.025400
     25 S25        -5.9880   -4.5020    3.0840 ss        1 741      0.041800
     26 C26        -5.7880   -5.5340    1.7780 cc        1 741      0.312800
     27 N27        -5.9000   -5.1750    0.4600 nd        1 741     -0.596000
     28 C28        -5.7840   -6.3310   -0.2720 cd        1 741      0.290200
     29 C29        -5.6000   -7.4390    0.5990 cc        1 741     -0.202600
     30 N30        -5.5810   -6.9300    1.8830 na        1 741     -0.134900
     31 C31        -5.5130   -7.6940    3.0900 c3        1 741      0.000600
     32 C32        -0.8400   -0.5480    6.0330 cg        1 741      0.168800
     33 N33        -1.4020   -0.6120    7.0500 n1        1 741     -0.246800
     34 N34         6.4000    0.2860   -3.8170 n4        1 741     -0.678400
     35 C35         7.8340   -0.1580   -3.8410 c3        1 741      0.078800
     36 C36         6.2690    1.6540   -4.3800 c3        1 741      0.082100
     37 C37         7.9870   -1.6880   -3.8050 c3        1 741      0.110400
     38 O38         7.0950   -2.2570   -4.7390 oh        1 741     -0.620800
     39 H3          3.3590   -0.3710    1.4850 ha        1 741      0.176000
     40 H6         -1.6200    0.1180    0.9560 ha        1 741      0.146000
     41 H8          1.8110   -0.8840    5.7740 h4        1 741      0.074100
     42 H13         4.2310    0.8060   -0.3000 h1        1 741      0.060700
     43 H13A        4.1110   -1.0090   -0.5810 h1        1 741      0.060700
     44 H14         3.9010   -0.6410   -3.0410 hc        1 741      0.088700
     45 H14A        3.8870    1.1550   -2.8070 hc        1 741      0.088700
     46 H15         6.2230    1.0850   -1.8450 hx        1 741      0.103700
     47 H15A        6.2180   -0.7440   -1.9600 hx        1 741      0.103700
     48 H16        -1.6140    0.5870   -2.6270 h1        1 741      0.065367
     49 H16A       -2.0630   -0.5020   -1.2120 h1        1 741      0.065367
     50 H16B       -1.9570    1.3230   -0.9750 h1        1 741      0.065367
     51 HN17       -2.4570    0.5300    4.4290 hn        1 741      0.463300
     52 H19        -4.5460   -0.4070    4.8540 ha        1 741      0.158000
     53 H20        -6.0420   -2.3340    4.5390 ha        1 741      0.180000
     54 H23        -1.7110   -2.1950    2.0510 ha        1 741      0.164000
     55 H28        -5.8440   -6.3410   -1.3620 h4        1 741      0.059100
     56 H29        -5.4960   -8.5030    0.3820 h4        1 741      0.197000
     57 H31        -6.4970   -8.2050    3.2800 h1        1 741      0.073033
     58 H31A       -4.7090   -8.4730    2.9950 h1        1 741      0.073033
     59 H31B       -5.2790   -7.0160    3.9540 h1        1 741      0.073033
     60 H35         8.2920    0.2350   -4.7940 hx        1 741      0.110200
     61 H35A        8.3710    0.2970   -2.9620 hx        1 741      0.110200
     62 H36         6.9110    2.3660   -3.7960 hx        1 741      0.106700
     63 H36A        6.5980    1.6480   -5.4550 hx        1 741      0.106700
     64 H36B        5.1960    1.9790   -4.3220 hx        1 741      0.106700
     65 H37         9.0610   -1.9340   -4.0180 h1        1 741      0.085700
     66 H37A        7.7080   -2.0970   -2.7960 h1        1 741      0.085700
     67 HO38        7.6060   -2.7120   -5.4210 ho        1 741      0.451000
     68 H172       -2.4040    0.6630    2.7630 hn        1 741      0.463300
     69 H341        5.8710   -0.3720   -4.4170 hn        1 741      0.472800
@<TRIPOS>BOND
     1    1    2 ar  
     2    1    6 ar  
     3    1   11 1   
     4    2    3 ar  
     5    2   12 1   
     6    3    4 ar  
     7    3   39 1   
     8    4    5 ar  
     9    4    7 ar  
    10    5    6 ar  
    11    5   10 ar  
    12    6   40 1   
    13    7    8 ar  
    14    8    9 ar  
    15    8   41 1   
    16    9   10 ar  
    17    9   32 1   
    18   10   17 1   
    19   11   16 1   
    20   12   13 1   
    21   13   14 1   
    22   13   42 1   
    23   13   43 1   
    24   14   15 1   
    25   14   44 1   
    26   14   45 1   
    27   15   34 1   
    28   15   46 1   
    29   15   47 1   
    30   16   48 1   
    31   16   49 1   
    32   16   50 1   
    33   17   18 1   
    34   17   51 1   
    35   17   68 1   
    36   18   19 ar  
    37   18   23 ar  
    38   19   20 ar  
    39   19   52 1   
    40   20   21 ar  
    41   20   53 1   
    42   21   22 ar  
    43   21   25 1   
    44   22   23 ar  
    45   22   24 1   
    46   23   54 1   
    47   25   26 1   
    48   26   27 2   
    49   26   30 1   
    50   27   28 1   
    51   28   29 2   
    52   28   55 1   
    53   29   30 1   
    54   29   56 1   
    55   30   31 1   
    56   31   57 1   
    57   31   58 1   
    58   31   59 1   
    59   32   33 3   
    60   34   35 1   
    61   34   36 1   
    62   34   69 1   
    63   35   37 1   
    64   35   60 1   
    65   35   61 1   
    66   36   62 1   
    67   36   63 1   
    68   36   64 1   
    69   37   38 1   
    70   37   65 1   
    71   37   66 1   
    72   38   67 1   
@<TRIPOS>SUBSTRUCTURE
     1 741         1 TEMP              0 ****  ****    0 ROOT
