@<TRIPOS>MOLECULE
741
   68    71     1     0     0
SMALL
bcc


@<TRIPOS>ATOM
      1 C1          0.1480   -0.6000    0.5430 ca        1 741      0.121100
      2 C2          1.5810   -0.5080    0.5330 ca        1 741      0.116100
      3 C3          2.2730   -0.2050    1.6800 ca        1 741     -0.237300
      4 C4          1.5720    0.0210    2.9080 ca        1 741      0.426600
      5 C5          0.1510   -0.1080    2.9280 ca        1 741     -0.149300
      6 C6         -0.5370   -0.4020    1.7220 ca        1 741     -0.157000
      7 N7          2.3130    0.3720    4.0210 nb        1 741     -0.679000
      8 C8          1.6650    0.5980    5.1440 ca        1 741      0.472200
      9 C9          0.2460    0.4780    5.2930 ca        1 741     -0.207300
     10 C10        -0.5350    0.1080    4.1850 ca        1 741      0.246600
     11 O11        -0.4210   -0.8670   -0.6800 os        1 741     -0.315900
     12 O12         2.1630   -0.7740   -0.6950 os        1 741     -0.303900
     13 C13         3.5300   -0.3800   -0.8210 c3        1 741      0.130400
     14 C14         3.8290   -0.5120   -2.3100 c3        1 741     -0.119400
     15 C15         5.2600   -0.0630   -2.5670 c3        1 741      0.108800
     16 C16        -1.8240   -1.1390   -0.6760 c3        1 741      0.104700
     17 N17        -1.9260    0.0610    4.2920 nh        1 741     -0.630000
     18 C18        -2.7040   -1.0270    3.8490 ca        1 741      0.156600
     19 C19        -4.1030   -0.8510    3.7200 ca        1 741     -0.165000
     20 C20        -4.8860   -1.8810    3.2260 ca        1 741     -0.055000
     21 C21        -4.3370   -3.1240    2.8760 ca        1 741     -0.056100
     22 C22        -2.9590   -3.3100    3.0500 ca        1 741      0.084400
     23 C23        -2.1450   -2.2780    3.5230 ca        1 741     -0.179000
     24 CL24       -2.2260   -4.8000    2.7010 cl        1 741     -0.062400
     25 S25        -5.4590   -4.2950    2.3730 ss        1 741     -0.130200
     26 C26        -4.8610   -4.9010    0.9040 cc        1 741      0.429800
     27 N27        -4.1470   -4.2300   -0.0420 nd        1 741     -0.663000
     28 C28        -3.9160   -5.1340   -1.0670 cd        1 741      0.288200
     29 C29        -4.5020   -6.3780   -0.7580 cc        1 741     -0.241600
     30 N30        -5.0810   -6.2350    0.5000 na        1 741     -0.165900
     31 C31        -5.8510   -7.2120    1.1980 c3        1 741      0.010600
     32 C32        -0.3240    0.7340    6.5630 cg        1 741      0.223800
     33 N33        -0.7800    0.9460    7.6130 n1        1 741     -0.341800
     34 N34         5.6820   -0.2420   -3.9960 n4        1 741     -0.680400
     35 C35         7.1760   -0.2370   -4.1240 c3        1 741      0.101800
     36 C36         5.0810    0.7970   -4.8700 c3        1 741      0.083100
     37 C37         7.8210   -1.5750   -3.7400 c3        1 741      0.110400
     38 O38         7.1470   -2.5800   -4.4750 oh        1 741     -0.629800
     39 H3          3.3720   -0.1320    1.6860 ha        1 741      0.153000
     40 H6         -1.6380   -0.4630    1.7230 ha        1 741      0.169000
     41 H8          2.2760    0.8890    6.0210 h4        1 741      0.041100
     42 H13         3.6690    0.6770   -0.4700 h1        1 741      0.053200
     43 H13A        4.1760   -1.0710   -0.2160 h1        1 741      0.053200
     44 H14         3.6750   -1.5810   -2.6170 hc        1 741      0.085700
     45 H14A        3.0930    0.1140   -2.8810 hc        1 741      0.085700
     46 H15         5.3820    1.0260   -2.3030 hx        1 741      0.101200
     47 H15A        5.9620   -0.6710   -1.9260 hx        1 741      0.101200
     48 H16        -2.0340   -1.4010   -1.7450 h1        1 741      0.059033
     49 H16A       -2.0630   -1.9990   -0.0060 h1        1 741      0.059033
     50 H16B       -2.3940   -0.2270   -0.3750 h1        1 741      0.059033
     51 HN17       -2.3090    0.5340    5.0870 hn        1 741      0.444800
     52 H19        -4.5730    0.1070    3.9930 ha        1 741      0.152000
     53 H20        -5.9710   -1.7220    3.0950 ha        1 741      0.159000
     54 H23        -1.0620   -2.4480    3.6360 ha        1 741      0.160000
     55 H28        -3.3570   -4.8580   -1.9610 h4        1 741      0.038100
     56 H29        -4.5480   -7.3110   -1.3170 h4        1 741      0.181000
     57 H31        -6.9140   -7.2100    0.8300 h1        1 741      0.064367
     58 H31A       -5.4080   -8.2290    1.0290 h1        1 741      0.064367
     59 H31B       -5.8440   -6.9760    2.2970 h1        1 741      0.064367
     60 H35         7.4240   -0.0160   -5.2030 hx        1 741      0.110200
     61 H35A        7.5940    0.5810   -3.4740 hx        1 741      0.110200
     62 H36         5.4970    1.8040   -4.6010 hx        1 741      0.105367
     63 H36A        5.3190    0.5640   -5.9440 hx        1 741      0.105367
     64 H36B        3.9660    0.8010   -4.7290 hx        1 741      0.105367
     65 H37         8.9100   -1.5240   -4.0120 h1        1 741      0.071200
     66 H37A        7.7210   -1.7820   -2.6410 h1        1 741      0.071200
     67 HO38        7.7050   -3.3700   -4.4800 ho        1 741      0.454000
     68 H341        5.3490   -1.1700   -4.3130 hn        1 741      0.473800
@<TRIPOS>BOND
     1    1    2 ar  
     2    1    6 ar  
     3    1   11 1   
     4    2    3 ar  
     5    2   12 1   
     6    3    4 ar  
     7    3   39 1   
     8    4    5 ar  
     9    4    7 ar  
    10    5    6 ar  
    11    5   10 ar  
    12    6   40 1   
    13    7    8 ar  
    14    8    9 ar  
    15    8   41 1   
    16    9   10 ar  
    17    9   32 1   
    18   10   17 1   
    19   11   16 1   
    20   12   13 1   
    21   13   14 1   
    22   13   42 1   
    23   13   43 1   
    24   14   15 1   
    25   14   44 1   
    26   14   45 1   
    27   15   34 1   
    28   15   46 1   
    29   15   47 1   
    30   16   48 1   
    31   16   49 1   
    32   16   50 1   
    33   17   18 1   
    34   17   51 1   
    35   18   19 ar  
    36   18   23 ar  
    37   19   20 ar  
    38   19   52 1   
    39   20   21 ar  
    40   20   53 1   
    41   21   22 ar  
    42   21   25 1   
    43   22   23 ar  
    44   22   24 1   
    45   23   54 1   
    46   25   26 1   
    47   26   27 2   
    48   26   30 1   
    49   27   28 1   
    50   28   29 2   
    51   28   55 1   
    52   29   30 1   
    53   29   56 1   
    54   30   31 1   
    55   31   57 1   
    56   31   58 1   
    57   31   59 1   
    58   32   33 3   
    59   34   35 1   
    60   34   36 1   
    61   34   68 1   
    62   35   37 1   
    63   35   60 1   
    64   35   61 1   
    65   36   62 1   
    66   36   63 1   
    67   36   64 1   
    68   37   38 1   
    69   37   65 1   
    70   37   66 1   
    71   38   67 1   
@<TRIPOS>SUBSTRUCTURE
     1 741         1 TEMP              0 ****  ****    0 ROOT
