@<TRIPOS>MOLECULE
741
   67    70     1     0     0
SMALL
bcc


@<TRIPOS>ATOM
      1 C1         -1.1950   -0.6170   -1.2340 ca        1 741      0.120100
      2 C2         -2.4250   -0.9130   -0.5440 ca        1 741      0.149100
      3 C3         -2.5190   -2.0300    0.2530 ca        1 741     -0.258300
      4 C4         -1.3980   -2.9060    0.4110 ca        1 741      0.434600
      5 C5         -0.1700   -2.5900   -0.2480 ca        1 741     -0.155300
      6 C6         -0.1040   -1.4420   -1.0810 ca        1 741     -0.174000
      7 N7         -1.5580   -4.0370    1.1900 nb        1 741     -0.669000
      8 C8         -0.5310   -4.8510    1.3150 ca        1 741      0.460200
      9 C9          0.7500   -4.6300    0.7180 ca        1 741     -0.211300
     10 C10         0.9500   -3.4820   -0.0650 ca        1 741      0.237600
     11 O11        -1.2410    0.5100   -2.0220 os        1 741     -0.300900
     12 O12        -3.4330   -0.0060   -0.7680 os        1 741     -0.299900
     13 C13        -4.6750   -0.2730   -0.0970 c3        1 741      0.122400
     14 C14        -5.6010    0.8630   -0.4980 c3        1 741     -0.087400
     15 C15        -6.9920    0.5920    0.0710 c3        1 741      0.171800
     16 C16        -0.0220    0.8790   -2.6640 c3        1 741      0.104700
     17 N17         2.1730   -3.2820   -0.7220 nh        1 741     -0.631000
     18 C18         2.9540   -2.1240   -0.5710 ca        1 741      0.176600
     19 C19         4.1330   -1.9970   -1.3470 ca        1 741     -0.183000
     20 C20         4.8940   -0.8410   -1.2680 ca        1 741     -0.043000
     21 C21         4.5520    0.2100   -0.4060 ca        1 741     -0.070100
     22 C22         3.4010    0.0700    0.3800 ca        1 741      0.093400
     23 C23         2.6040   -1.0740    0.3030 ca        1 741     -0.188000
     24 CL24        2.9310    1.2910    1.4620 cl        1 741     -0.070400
     25 S25         5.6550    1.5020   -0.3360 ss        1 741     -0.151200
     26 C26         4.7580    2.8860   -0.7350 cc        1 741      0.425800
     27 N27         3.8450    3.0160   -1.7370 nd        1 741     -0.644000
     28 C28         3.4010    4.3280   -1.6920 cd        1 741      0.289200
     29 C29         4.0550    5.0250   -0.6550 cc        1 741     -0.244600
     30 N30         4.8980    4.1060   -0.0380 na        1 741     -0.166900
     31 C31         5.8090    4.3740    1.0260 c3        1 741      0.011600
     32 C32         1.7760   -5.5790    0.9390 cg        1 741      0.235800
     33 N33         2.6130   -6.3650    1.1290 n1        1 741     -0.363800
     34 N34        -7.9040    1.7210   -0.0570 n3        1 741     -0.747600
     35 C35        -9.0660    1.5960    0.8130 c3        1 741      0.126800
     36 C36        -8.2540    2.0200   -1.4270 c3        1 741      0.156100
     37 C37        -8.7900    2.0500    2.2530 c3        1 741      0.134400
     38 O38        -8.6280    3.4490    2.3490 oh        1 741     -0.601800
     39 H3         -3.4520   -2.2780    0.7810 ha        1 741      0.163000
     40 H6          0.8310   -1.2150   -1.6150 ha        1 741      0.162000
     41 H8         -0.6900   -5.7560    1.9340 h4        1 741      0.035100
     42 H13        -5.0750   -1.2650   -0.4340 h1        1 741      0.043700
     43 H13A       -4.5050   -0.2890    1.0120 h1        1 741      0.043700
     44 H14        -5.1920    1.8330   -0.1130 hc        1 741      0.067700
     45 H14A       -5.6340    0.9340   -1.6160 hc        1 741      0.067700
     46 H15        -7.4080   -0.3330   -0.4300 h1        1 741      0.031700
     47 H15A       -6.8860    0.3590    1.1690 h1        1 741      0.031700
     48 H16        -0.2940    1.8220   -3.2030 h1        1 741      0.053367
     49 H16A        0.7810    1.0720   -1.9120 h1        1 741      0.053367
     50 H16B        0.2950    0.0890   -3.3870 h1        1 741      0.053367
     51 HN17        2.7100   -4.1160   -0.8650 hn        1 741      0.437800
     52 H19         4.4420   -2.8040   -2.0290 ha        1 741      0.146000
     53 H20         5.7910   -0.7390   -1.9030 ha        1 741      0.155000
     54 H23         1.6980   -1.1510    0.9270 ha        1 741      0.164000
     55 H28         2.6530    4.7040   -2.3880 h4        1 741      0.042100
     56 H29         3.9840    6.0610   -0.3310 h4        1 741      0.179000
     57 H31         6.7400    4.8640    0.6310 h1        1 741      0.061700
     58 H31A        5.3250    5.0590    1.7720 h1        1 741      0.061700
     59 H31B        6.0880    3.4080    1.5280 h1        1 741      0.061700
     60 H35        -9.8940    2.2450    0.4090 h1        1 741      0.044700
     61 H35A       -9.4500    0.5350    0.8500 h1        1 741      0.044700
     62 H36        -8.8190    1.1890   -1.9330 h1        1 741      0.035033
     63 H36A       -8.8840    2.9470   -1.4500 h1        1 741      0.035033
     64 H36B       -7.3140    2.2150   -2.0070 h1        1 741      0.035033
     65 H37        -9.6910    1.8250    2.8850 h1        1 741      0.043700
     66 H37A       -7.8940    1.5270    2.6830 h1        1 741      0.043700
     67 HO38       -7.8940    3.6950    1.7730 ho        1 741      0.412000
@<TRIPOS>BOND
     1    1    2 ar  
     2    1    6 ar  
     3    1   11 1   
     4    2    3 ar  
     5    2   12 1   
     6    3    4 ar  
     7    3   39 1   
     8    4    5 ar  
     9    4    7 ar  
    10    5    6 ar  
    11    5   10 ar  
    12    6   40 1   
    13    7    8 ar  
    14    8    9 ar  
    15    8   41 1   
    16    9   10 ar  
    17    9   32 1   
    18   10   17 1   
    19   11   16 1   
    20   12   13 1   
    21   13   14 1   
    22   13   42 1   
    23   13   43 1   
    24   14   15 1   
    25   14   44 1   
    26   14   45 1   
    27   15   34 1   
    28   15   46 1   
    29   15   47 1   
    30   16   48 1   
    31   16   49 1   
    32   16   50 1   
    33   17   18 1   
    34   17   51 1   
    35   18   19 ar  
    36   18   23 ar  
    37   19   20 ar  
    38   19   52 1   
    39   20   21 ar  
    40   20   53 1   
    41   21   22 ar  
    42   21   25 1   
    43   22   23 ar  
    44   22   24 1   
    45   23   54 1   
    46   25   26 1   
    47   26   27 2   
    48   26   30 1   
    49   27   28 1   
    50   28   29 2   
    51   28   55 1   
    52   29   30 1   
    53   29   56 1   
    54   30   31 1   
    55   31   57 1   
    56   31   58 1   
    57   31   59 1   
    58   32   33 3   
    59   34   35 1   
    60   34   36 1   
    61   35   37 1   
    62   35   60 1   
    63   35   61 1   
    64   36   62 1   
    65   36   63 1   
    66   36   64 1   
    67   37   38 1   
    68   37   65 1   
    69   37   66 1   
    70   38   67 1   
@<TRIPOS>SUBSTRUCTURE
     1 741         1 TEMP              0 ****  ****    0 ROOT
