@<TRIPOS>MOLECULE
741
   67    61     1     0     0
SMALL
bcc


@<TRIPOS>ATOM
      1 C1         -0.4410   -2.3050   -1.2730 c1        1 741      0.034000
      2 C2          0.9350   -2.2860   -1.2460 c1        1 741      0.097000
      3 C3          1.6130   -2.3160   -0.0200 c1        1 741     -0.202000
      4 C4          0.8860   -2.3660    1.1880 c1        1 741      0.058000
      5 C5         -0.4930   -2.3850    1.1600 c1        1 741     -0.122000
      6 C6         -1.1700   -2.3550   -0.0690 c1        1 741     -0.088000
      7 N7          1.5600   -2.3960    2.4140 n2        1 741     -0.153000
      8 C8          0.8540   -2.4440    3.5840 c1        1 741      0.008000
      9 C9         -0.5390   -2.4640    3.5570 c1        1 741     -0.162000
     10 C10        -1.2080   -2.4340    2.3460 c2        1 741      0.175000
     11 O11        -1.0220   -2.3810   -2.5720 os        1 741     -0.209000
     12 O12         1.4970   -2.3880   -2.5810 os        1 741     -0.202000
     13 C13         2.6630   -1.6000   -2.7770 c3        1 741     -0.026000
     14 C14         3.0220   -1.5840   -4.2510 c3        1 741     -0.168000
     15 C15         4.0240   -0.4610   -4.5180 c3        1 741     -0.059000
     16 C16        -1.7540   -1.2090   -2.9500 c3        1 741     -0.076000
     17 N17        -2.5840   -2.4120    2.7340 n3        1 741     -0.259000
     18 C18        -3.1960   -1.1580    3.2170 c2        1 741      0.052000
     19 C19        -2.9570    0.0550    2.5320 c2        1 741     -0.154000
     20 C20        -3.5640    1.2370    2.9710 c1        1 741     -0.089000
     21 C21        -4.4120    1.2170    4.0930 c1        1 741     -0.278000
     22 C22        -4.6470    0.0130    4.7720 c1        1 741     -0.039000
     23 C23        -4.0350   -1.1770    4.3290 c1        1 741     -0.142000
     24 CL24       -5.6980   -0.0090    6.1930 cl        1 741      0.005000
     25 S25        -5.2290    2.7270    4.6320 ss        1 741      0.471000
     26 C26        -4.0210    3.8710    5.2330 c2        1 741     -0.301000
     27 N27        -2.6870    3.6720    5.2600 n2        1 741     -0.097500
     28 C28        -2.1160    4.7560    5.8080 c1        1 741     -0.164000
     29 C29        -3.1100    5.6420    6.1280 c1        1 741     -0.164000
     30 N30        -4.2760    5.0980    5.7750 n2        1 741     -0.097500
     31 C31        -5.5990    5.6740    6.0170 c2        1 741     -0.094000
     32 C32        -0.9390   -2.3700    5.0260 c1        1 741     -0.092000
     33 N33        -1.2430   -2.2980    6.1390 n1        1 741     -0.043000
     34 N34         4.3160   -0.3990   -5.9450 n3        1 741     -0.266000
     35 C35         5.6220    0.1920   -6.1450 c3        1 741     -0.071000
     36 C36         3.3370    0.3880   -6.5950 c3        1 741     -0.123000
     37 C37         6.4430   -0.6850   -7.1080 c3        1 741     -0.020000
     38 O38         7.2890    0.1490   -7.9100 oh        1 741     -0.334000
     39 H3          2.5830   -2.3030   -0.0020 ha        1 741      0.162000
     40 H6         -2.1600   -2.3690   -0.0900 ha        1 741      0.169000
     41 H8          1.3250   -2.4670    4.4380 ha        1 741      0.171000
     42 H13         2.4930   -0.6770   -2.4690 h1        1 741      0.086000
     43 H13A        3.4070   -1.9830   -2.2650 h1        1 741      0.086000
     44 H14         2.2130   -1.4340   -4.7830 hc        1 741      0.105500
     45 H14A        3.4300   -2.4620   -4.5030 hc        1 741      0.105500
     46 H15         4.8570   -0.6380   -4.0190 h1        1 741      0.072000
     47 H15A        3.6400    0.4010   -4.2210 h1        1 741      0.072000
     48 H16        -2.0860   -1.3110   -3.8850 h1        1 741      0.086667
     49 H16A       -2.5110   -1.0910   -2.3490 h1        1 741      0.086667
     50 H16B       -1.1800   -0.4400   -2.8960 h1        1 741      0.086667
     51 HN17       -3.0720   -3.1950    2.7430 hn        1 741      0.232000
     52 H19        -2.3600    0.0690    1.7430 ha        1 741      0.150000
     53 H20        -3.3970    2.0810    2.4940 ha        1 741      0.156000
     54 H23        -4.2020   -2.0240    4.8060 ha        1 741      0.157000
     55 H28        -1.1680    4.8870    5.9520 DU        1 741      0.182500
     56 H29        -2.9840    6.5350    6.5500 DU        1 741      0.182500
     57 H31        -6.0210    5.8770    5.1720 ha        1 741      0.104667
     58 H31A       -5.5070    6.4840    6.5350 ha        1 741      0.104667
     59 H31B       -6.1430    5.0390    6.5050 ha        1 741      0.104667
     60 H35         5.5190    1.0910   -6.5270 h1        1 741      0.086500
     61 H35A        6.0820    0.2530   -5.2940 h1        1 741      0.086500
     62 H36         2.5050   -0.1290   -6.6780 h1        1 741      0.072667
     63 H36A        3.6610    0.6390   -7.4980 h1        1 741      0.072667
     64 H36B        3.1660    1.2050   -6.0670 h1        1 741      0.072667
     65 H37         5.8390   -1.1870   -7.6880 h1        1 741      0.069500
     66 H37A        6.9920   -1.3060   -6.5940 h1        1 741      0.069500
     67 HO38        7.9600   -0.3510   -8.2630 ho        1 741      0.202000
@<TRIPOS>BOND
     1    1    6 1   
     2    1   11 1   
     3    2    3 1   
     4    2   12 1   
     5    3   39 1   
     6    4    5 1   
     7    4    7 1   
     8    5   10 1   
     9    6   40 1   
    10    7    8 1   
    11    8   41 1   
    12    9   10 1   
    13    9   32 1   
    14   10   17 1   
    15   11   16 1   
    16   12   13 1   
    17   13   14 1   
    18   13   42 1   
    19   13   43 1   
    20   14   15 1   
    21   14   44 1   
    22   14   45 1   
    23   15   34 1   
    24   15   46 1   
    25   15   47 1   
    26   16   48 1   
    27   16   49 1   
    28   16   50 1   
    29   17   18 1   
    30   17   51 1   
    31   18   19 1   
    32   18   23 1   
    33   19   20 1   
    34   19   52 1   
    35   20   53 1   
    36   21   22 1   
    37   21   25 1   
    38   22   24 1   
    39   23   54 1   
    40   25   26 1   
    41   26   27 1   
    42   26   30 1   
    43   27   28 1   
    44   28   29 1   
    45   29   30 1   
    46   31   57 1   
    47   31   58 1   
    48   31   59 1   
    49   32   33 1   
    50   34   35 1   
    51   34   36 1   
    52   35   37 1   
    53   35   60 1   
    54   35   61 1   
    55   36   62 1   
    56   36   63 1   
    57   36   64 1   
    58   37   38 1   
    59   37   65 1   
    60   37   66 1   
    61   38   67 1   
@<TRIPOS>SUBSTRUCTURE
     1 741         1 TEMP              0 ****  ****    0 ROOT
