@<TRIPOS>MOLECULE
741
   68    71     1     0     0
SMALL
bcc


@<TRIPOS>ATOM
      1 C1          0.0000    0.0000    0.0000 ca        1 741      0.204100
      2 C2          1.4010    0.0000    0.0000 ca        1 741      0.131100
      3 C3          2.1040    0.0000    1.1830 ca        1 741     -0.234300
      4 C4          1.4130    0.0000    2.4040 ca        1 741      0.352600
      5 C5         -0.0020    0.0000    2.3950 ca        1 741     -0.173300
      6 C6         -0.6950    0.0000    1.1750 ca        1 741     -0.243000
      7 N7          2.0820   -0.0010    3.5680 nb        1 741     -0.540000
      8 C8          1.4650   -0.0010    4.7210 ca        1 741      0.430200
      9 C9          0.0640   -0.0010    4.8080 ca        1 741     -0.082300
     10 C10        -0.6960    0.0010    3.6280 ca        1 741      0.097600
     11 O11        -0.6740    0.0060   -1.1800 os        1 741     -0.278900
     12 O12         2.0730    0.0010   -1.1810 os        1 741     -0.261900
     13 C13         3.5010    0.0020   -1.1160 c3        1 741      0.221400
     14 C14         4.0760    0.0010   -2.5330 c3        1 741     -0.115400
     15 C15         5.6050    0.0020   -2.4630 c3        1 741     -0.066200
     16 C16        -2.1010    0.0050   -1.1130 c3        1 741      0.198700
     17 N17        -2.0760    0.0010    3.6680 nu        1 741     -0.305000
     18 C18        -2.7780   -1.2090    3.6320 ca        1 741      0.027600
     19 C19        -4.1630   -1.2120    3.7250 ca        1 741     -0.214000
     20 C20        -4.8560   -2.4050    3.6880 ca        1 741      0.034000
     21 C21        -4.1680   -3.6050    3.5590 ca        1 741      0.018900
     22 C22        -2.7800   -3.6030    3.4660 ca        1 741      0.093400
     23 C23        -2.0890   -2.4080    3.4970 ca        1 741     -0.196000
     24 Cl24       -1.9190   -5.1010    3.3030 cl        1 741      0.001600
     25 S25        -5.0520   -5.1280    3.5130 ss        1 741     -0.350200
     26 C26        -4.9290   -5.5020    1.7960 cc        1 741      0.332800
     27 N27        -4.4070   -4.7240    0.8760 nd        1 741     -0.631000
     28 C28        -4.4850   -5.3340   -0.3180 cd        1 741      0.341200
     29 C29        -5.0740   -6.5300   -0.1440 cc        1 741     -0.416600
     30 N30        -5.3540   -6.6490    1.1980 na        1 741      0.331100
     31 C31        -5.9930   -7.7900    1.8580 c3        1 741     -0.053400
     32 C32        -0.5830   -0.0020    6.0850 cg        1 741      0.211800
     33 N33        -1.1070   -0.0190    7.0930 n1        1 741     -0.329800
     34 N34         6.1570    0.0020   -3.8250 nx        1 741      0.090600
     35 C35         7.6070   -0.2360   -3.8040 c3        1 741     -0.098200
     36 C36         5.8390    1.2560   -4.5210 c3        1 741      0.019100
     37 C37         7.8770   -1.7200   -3.5490 c3        1 741      0.185400
     38 O38         7.3860   -2.4890   -4.6500 oh        1 741     -0.545800
     39 H3          3.1370   -0.2300    1.4150 ha        1 741      0.145000
     40 H6         -1.1020    0.8560    1.7000 ha        1 741      0.184000
     41 H8          1.7420   -0.4190    5.6810 h4        1 741      0.003100
     42 H13         3.6190    0.9280   -0.5670 h1        1 741      0.005200
     43 H13A        4.3090   -0.5710   -0.6770 h1        1 741      0.005200
     44 H14         3.3130    0.3310   -3.2280 hc        1 741      0.047700
     45 H14A        4.2210   -1.0050   -2.9080 hc        1 741      0.047700
     46 H15         5.7540    1.0570   -2.2660 hx        1 741      0.099200
     47 H15A        5.6660   -0.3670   -1.4460 hx        1 741      0.099200
     48 H16        -2.1540   -0.6650   -0.2630 h1        1 741      0.021367
     49 H16A       -2.6440    0.8260   -0.6590 h1        1 741      0.021367
     50 H16B       -2.5600   -0.5820   -1.8990 h1        1 741      0.021367
     51 HN17       -2.8410    0.6310    3.5220 hn        1 741      0.327800
     52 H19        -4.5100   -0.3390    4.2650 ha        1 741      0.120000
     53 H20        -5.9020   -2.1230    3.6560 ha        1 741      0.125000
     54 H23        -1.0340   -2.1660    3.4430 ha        1 741      0.127000
     55 H28        -4.2800   -4.8760   -1.2780 h4        1 741     -0.000900
     56 H29        -5.1390   -7.4740   -0.6720 h4        1 741      0.147000
     57 H31        -5.9910   -8.8040    1.4750 h1        1 741      0.034700
     58 H31A       -6.8760   -7.4020    2.3500 h1        1 741      0.034700
     59 H31B       -5.4850   -8.0740    2.7720 h1        1 741      0.034700
     60 H35         8.1810    0.1320   -2.9620 hx        1 741      0.090200
     61 H35A        8.1170    0.2660   -4.6170 hx        1 741      0.090200
     62 H36         6.2720    1.0790   -5.4980 hx        1 741      0.073033
     63 H36A        4.8220    1.0510   -4.8340 hx        1 741      0.073033
     64 H36B        6.0370    2.1580   -3.9560 hx        1 741      0.073033
     65 H37         8.9480   -1.5970   -3.6560 h1        1 741      0.031200
     66 H37A        7.7100   -1.7880   -2.4810 h1        1 741      0.031200
     67 HO38        8.1130   -3.0620   -4.4690 ho        1 741      0.433000
     68 H341        5.7070   -0.6560   -4.4300 hn        1 741      0.266800
@<TRIPOS>BOND
     1    1    2 ar  
     2    1    6 ar  
     3    1   11 1   
     4    2    3 ar  
     5    2   12 1   
     6    3    4 ar  
     7    3   39 1   
     8    4    5 ar  
     9    4    7 ar  
    10    5    6 ar  
    11    5   10 ar  
    12    6   40 1   
    13    7    8 ar  
    14    8    9 ar  
    15    8   41 1   
    16    9   10 ar  
    17    9   32 1   
    18   10   17 1   
    19   11   16 1   
    20   12   13 1   
    21   13   14 1   
    22   13   42 1   
    23   13   43 1   
    24   14   15 1   
    25   14   44 1   
    26   14   45 1   
    27   15   34 1   
    28   15   46 1   
    29   15   47 1   
    30   16   48 1   
    31   16   49 1   
    32   16   50 1   
    33   17   18 1   
    34   17   51 1   
    35   18   19 ar  
    36   18   23 ar  
    37   19   20 ar  
    38   19   52 1   
    39   20   21 ar  
    40   20   53 1   
    41   21   22 ar  
    42   21   25 1   
    43   22   23 ar  
    44   22   24 1   
    45   23   54 1   
    46   25   26 1   
    47   26   27 2   
    48   26   30 1   
    49   27   28 1   
    50   28   29 2   
    51   28   55 1   
    52   29   30 1   
    53   29   56 1   
    54   30   31 1   
    55   31   57 1   
    56   31   58 1   
    57   31   59 1   
    58   32   33 3   
    59   34   35 1   
    60   34   36 1   
    61   34   68 1   
    62   35   37 1   
    63   35   60 1   
    64   35   61 1   
    65   36   62 1   
    66   36   63 1   
    67   36   64 1   
    68   37   38 1   
    69   37   65 1   
    70   37   66 1   
    71   38   67 1   
@<TRIPOS>SUBSTRUCTURE
     1 741         1 TEMP              0 ****  ****    0 ROOT
