@<TRIPOS>MOLECULE
742
   59    56     1     0     0
SMALL
bcc


@<TRIPOS>ATOM
      1 CAA       -29.4910   92.8110    2.6240 c3        1 742     -0.209000
      2 CAJ       -29.7390   93.8400    1.5520 c3        1 742     -0.159000
      3 CAK       -30.9370   94.7060    1.8770 c3        1 742     -0.158000
      4 CAL       -31.1860   95.7340    0.7940 c3        1 742     -0.158000
      5 CAM       -32.3890   96.5940    1.1160 c3        1 742     -0.158000
      6 CAN       -32.6410   97.6180    0.0300 c3        1 742     -0.157000
      7 CAO       -33.8460   98.4760    0.3490 c3        1 742     -0.158000
      8 CAP       -34.0970   99.5000   -0.7360 c3        1 742     -0.157000
      9 CAQ       -35.3010  100.3610   -0.4150 c3        1 742     -0.158000
     10 CAR       -35.5480  101.3900   -1.4980 c3        1 742     -0.157000
     11 CAS       -36.7530  102.2530   -1.1740 c3        1 742     -0.147000
     12 CAT       -37.0090  103.3060   -2.2070 c3        1 742     -0.371000
     13 PAY       -38.4280  103.0290   -3.1950 p3        1 742      0.451000
     14 CAB       -38.2980  101.3910   -3.7010 c3        1 742     -0.443000
     15 CAC       -39.7260  102.9820   -2.0720 c3        1 742     -0.443000
     16 CAU       -40.1900  103.6220   -5.0930 c2        1 742     -0.250000
     17 CAV       -41.4600  103.3000   -4.9010 c2        1 742     -0.696000
     18 PAX       615.5970-1365.0220  102.4090 p3        1 742      2.361000
     19 OAH       614.3370-1365.7670  102.5760 o         1 742     -1.120000
     20 OAI       616.1540-1364.8080  101.0610 o         1 742     -1.120000
     21 OAE       616.3000-1364.4890  103.5900 o         1 742     -1.120000
     22 PAW       -41.9060  101.6080   -4.8630 p5        1 742      1.640500
     23 OAF       -40.7430  100.8530   -5.4830 o         1 742     -0.948500
     24 OAG       -42.0050  101.3700   -3.3630 o         1 742     -0.948500
     25 OAD       -43.2090  101.5160   -5.6190 o         1 742     -0.948500
     26 HAV       -42.2310  104.0270   -4.6370 ha        1 742      0.079000
     27 HAU1      -39.7610  104.6280   -4.9900 ha        1 742      0.073000
     28 HAU2      -39.4810  102.8440   -5.4180 ha        1 742      0.073000
     29 HAC1      -40.6010  102.4640   -2.5970 hc        1 742      0.108167
     30 HAC2      -39.4840  102.4250   -1.1450 hc        1 742      0.108167
     31 HAC3      -40.0050  104.0240   -1.8160 hc        1 742      0.108167
     32 HAB1      -37.4450  101.3010   -4.4030 hc        1 742      0.108167
     33 HAB2      -39.2730  101.1340   -4.2470 hc        1 742      0.108167
     34 HAB3      -38.1660  100.6850   -2.8570 hc        1 742      0.108167
     35 HAT1      -37.1690  104.2980   -1.7250 hc        1 742      0.065000
     36 HAT2      -36.1580  103.3950   -2.9200 hc        1 742      0.065000
     37 HAS1      -36.5900  102.7220   -0.1650 hc        1 742      0.071000
     38 HAS2      -37.6580  101.5930   -1.0790 hc        1 742      0.071000
     39 HAR1      -35.7170  100.8710   -2.4780 hc        1 742      0.077000
     40 HAR2      -34.6390  102.0370   -1.6140 hc        1 742      0.077000
     41 HAQ1      -35.1420  100.8760    0.5690 hc        1 742      0.076000
     42 HAQ2      -36.2100   99.7120   -0.3060 hc        1 742      0.076000
     43 HAP1      -33.1910  100.1500   -0.8570 hc        1 742      0.076000
     44 HAP2      -34.2630   98.9780   -1.7150 hc        1 742      0.076000
     45 HAO1      -33.6870   98.9970    1.3300 hc        1 742      0.077000
     46 HAO2      -34.7520   97.8240    0.4650 hc        1 742      0.077000
     47 HAN1      -32.8030   97.0950   -0.9500 hc        1 742      0.077000
     48 HAN2      -31.7360   98.2700   -0.0900 hc        1 742      0.077000
     49 HAM1      -32.2260   97.1170    2.0950 hc        1 742      0.077000
     50 HAM2      -33.2950   95.9440    1.2360 hc        1 742      0.077000
     51 HAL1      -31.3490   95.2140   -0.1870 hc        1 742      0.077000
     52 HAL2      -30.2790   96.3840    0.6760 hc        1 742      0.077000
     53 HAK1      -30.7700   95.2260    2.8570 hc        1 742      0.077500
     54 HAK2      -31.8460   94.0600    1.9970 hc        1 742      0.077500
     55 HAJ1      -28.8310   94.4880    1.4330 hc        1 742      0.076500
     56 HAJ2      -29.9070   93.3250    0.5690 hc        1 742      0.076500
     57 HAA1      -29.2960   93.3060    3.6070 hc        1 742      0.067667
     58 HAA2      -28.6060   92.1820    2.3640 hc        1 742      0.067667
     59 HAA3      -30.3770   92.1420    2.7410 hc        1 742      0.067667
@<TRIPOS>BOND
     1    1    2 1   
     2    1   57 1   
     3    1   58 1   
     4    1   59 1   
     5    2    3 1   
     6    2   55 1   
     7    2   56 1   
     8    3    4 1   
     9    3   53 1   
    10    3   54 1   
    11    4    5 1   
    12    4   51 1   
    13    4   52 1   
    14    5    6 1   
    15    5   49 1   
    16    5   50 1   
    17    6    7 1   
    18    6   47 1   
    19    6   48 1   
    20    7    8 1   
    21    7   45 1   
    22    7   46 1   
    23    8    9 1   
    24    8   43 1   
    25    8   44 1   
    26    9   10 1   
    27    9   41 1   
    28    9   42 1   
    29   10   11 1   
    30   10   39 1   
    31   10   40 1   
    32   11   12 1   
    33   11   37 1   
    34   11   38 1   
    35   12   13 1   
    36   12   35 1   
    37   12   36 1   
    38   13   14 1   
    39   13   15 1   
    40   14   32 1   
    41   14   33 1   
    42   14   34 1   
    43   15   29 1   
    44   15   30 1   
    45   15   31 1   
    46   16   17 1   
    47   16   27 1   
    48   16   28 1   
    49   17   22 1   
    50   17   26 1   
    51   18   19 1   
    52   18   20 1   
    53   18   21 1   
    54   22   23 1   
    55   22   24 1   
    56   22   25 1   
@<TRIPOS>SUBSTRUCTURE
     1 742         1 TEMP              0 ****  ****    0 ROOT
