@<TRIPOS>MOLECULE
742
   59    57     1     0     0
SMALL
bcc


@<TRIPOS>ATOM
      1 CAA        13.1610    0.6540    0.2840 c3        1 742     -0.208000
      2 CAJ        11.8840    0.8330   -0.4960 c3        1 742     -0.160000
      3 CAK        10.6740    0.4100    0.3100 c3        1 742     -0.157000
      4 CAL         9.3940    0.5920   -0.4780 c3        1 742     -0.158000
      5 CAM         8.1850    0.1700    0.3290 c3        1 742     -0.157000
      6 CAN         6.9050    0.3520   -0.4590 c3        1 742     -0.158000
      7 CAO         5.6940   -0.0700    0.3460 c3        1 742     -0.157000
      8 CAP         4.4140    0.1130   -0.4420 c3        1 742     -0.158000
      9 CAQ         3.2010   -0.3070    0.3620 c3        1 742     -0.156000
     10 CAR         1.9220   -0.1130   -0.4250 c3        1 742     -0.158000
     11 CAS         0.7040   -0.5370    0.3720 c3        1 742     -0.085000
     12 CAT        -0.5660   -0.2690   -0.3650 c3        1 742     -1.016000
     13 PAY        -1.8690   -1.0750    0.2490 p5        1 742      3.320000
     14 CAB        -1.7180   -2.5630    0.0310 c2        1 742     -1.690000
     15 CAC        -1.7630   -0.7630    1.8760 c3        1 742     -0.997000
     16 CAU        -3.2070   -0.4710   -0.4180 c3        1 742     -0.956000
     17 CAV        -3.6950    0.7930    0.1840 c2        1 742     -1.394000
     18 PAX        -2.9200    2.1830   -1.2740 p3        1 742      2.574000
     19 OAH        -1.6910    2.5610   -0.4830 o         1 742     -1.227667
     20 OAI        -2.5720    1.3570   -2.4800 o         1 742     -1.227667
     21 OAE        -3.9240    3.2590   -1.5070 o         1 742     -1.227667
     22 PAW        -5.2010    0.6440    0.8160 p5        1 742      2.087000
     23 OAF        -6.2380   -0.0660   -0.0040 o         1 742     -0.934500
     24 OAG        -5.0010   -0.6170    1.9450 oh        1 742     -0.866000
     25 OAD        -5.6680    1.7460    1.7080 o         1 742     -0.934500
     26 HAV        -2.9890    1.2420    0.9050 ha        1 742      0.111000
     27 HAU1       -3.0660   -0.3170   -1.5400 hc        1 742      0.151500
     28 HAU2       -4.0600   -1.2120   -0.3800 hc        1 742      0.151500
     29 HAC1       -1.5280    0.3030    2.1070 hc        1 742      0.119000
     30 HAC2       -2.7410   -0.9800    2.3790 hc        1 742      0.119000
     31 HAC3       -0.9930   -1.3940    2.3730 hc        1 742      0.119000
     32 HAB1       -0.8680   -3.1540    0.3540 ha        1 742      0.100000
     33 HAB2       -5.6300   -1.2990    1.7560 ho        1 742      0.178000
     34 HAB3       -2.4600   -3.1790   -0.4670 ha        1 742      0.100000
     35 HAT1       -0.7850    0.8650   -0.3950 hc        1 742      0.193500
     36 HAT2       -0.4400   -0.5180   -1.4510 hc        1 742      0.193500
     37 HAS1        0.7730   -1.6350    0.6080 hc        1 742      0.054000
     38 HAS2        0.7100    0.0150    1.3510 hc        1 742      0.054000
     39 HAR1        1.8060    0.9660   -0.7110 hc        1 742      0.085500
     40 HAR2        1.9730   -0.7050   -1.3760 hc        1 742      0.085500
     41 HAQ1        3.3030   -1.3840    0.6580 hc        1 742      0.065500
     42 HAQ2        3.1530    0.2930    1.3080 hc        1 742      0.065500
     43 HAP1        4.3060    1.1890   -0.7410 hc        1 742      0.077000
     44 HAP2        4.4650   -0.4890   -1.3870 hc        1 742      0.077000
     45 HAO1        5.7990   -1.1450    0.6470 hc        1 742      0.072000
     46 HAO2        5.6420    0.5340    1.2900 hc        1 742      0.072000
     47 HAN1        6.7980    1.4270   -0.7600 hc        1 742      0.076500
     48 HAN2        6.9550   -0.2510   -1.4040 hc        1 742      0.076500
     49 HAM1        8.2900   -0.9060    0.6300 hc        1 742      0.074500
     50 HAM2        8.1330    0.7730    1.2730 hc        1 742      0.074500
     51 HAL1        9.2870    1.6680   -0.7790 hc        1 742      0.077500
     52 HAL2        9.4450   -0.0110   -1.4220 hc        1 742      0.077500
     53 HAK1       10.7800   -0.6650    0.6110 hc        1 742      0.076000
     54 HAK2       10.6220    1.0140    1.2540 hc        1 742      0.076000
     55 HAJ1       11.7740    1.9080   -0.7970 hc        1 742      0.076500
     56 HAJ2       11.9320    0.2300   -1.4410 hc        1 742      0.076500
     57 HAA1       13.1410    1.2670    1.2180 hc        1 742      0.065667
     58 HAA2       13.2990   -0.4160    0.5730 hc        1 742      0.065667
     59 HAA3       14.0400    0.9710   -0.3270 hc        1 742      0.065667
@<TRIPOS>BOND
     1    1    2 1   
     2    1   57 1   
     3    1   58 1   
     4    1   59 1   
     5    2    3 1   
     6    2   55 1   
     7    2   56 1   
     8    3    4 1   
     9    3   53 1   
    10    3   54 1   
    11    4    5 1   
    12    4   51 1   
    13    4   52 1   
    14    5    6 1   
    15    5   49 1   
    16    5   50 1   
    17    6    7 1   
    18    6   47 1   
    19    6   48 1   
    20    7    8 1   
    21    7   45 1   
    22    7   46 1   
    23    8    9 1   
    24    8   43 1   
    25    8   44 1   
    26    9   10 1   
    27    9   41 1   
    28    9   42 1   
    29   10   11 1   
    30   10   39 1   
    31   10   40 1   
    32   11   12 1   
    33   11   37 1   
    34   11   38 1   
    35   12   13 1   
    36   12   35 1   
    37   12   36 1   
    38   13   14 1   
    39   13   15 1   
    40   13   16 1   
    41   14   32 1   
    42   14   34 1   
    43   15   29 1   
    44   15   30 1   
    45   15   31 1   
    46   16   17 1   
    47   16   27 1   
    48   16   28 1   
    49   17   22 1   
    50   17   26 1   
    51   18   19 1   
    52   18   20 1   
    53   18   21 1   
    54   22   23 1   
    55   22   24 1   
    56   22   25 1   
    57   24   33 1   
@<TRIPOS>SUBSTRUCTURE
     1 742         1 TEMP              0 ****  ****    0 ROOT
