@<TRIPOS>MOLECULE
742
   59    57     1     0     0
SMALL
bcc


@<TRIPOS>ATOM
      1 CAA         0.4380   -0.8850   -0.0890 c3        1 742     -0.208000
      2 CAJ         1.9330   -0.7240    0.0110 c3        1 742     -0.160000
      3 CAK         2.3840   -0.5780    1.4490 c3        1 742     -0.157000
      4 CAL         3.8860   -0.4160    1.5440 c3        1 742     -0.158000
      5 CAM         4.3360   -0.2710    2.9820 c3        1 742     -0.157000
      6 CAN         5.8380   -0.1100    3.0770 c3        1 742     -0.158000
      7 CAO         6.2890    0.0350    4.5150 c3        1 742     -0.157000
      8 CAP         7.7920    0.1960    4.6100 c3        1 742     -0.158000
      9 CAQ         8.2460    0.3410    6.0470 c3        1 742     -0.156000
     10 CAR         9.7510    0.4900    6.1390 c3        1 742     -0.158000
     11 CAS        10.2120    0.6420    7.5760 c3        1 742     -0.085000
     12 CAT        11.6990    0.7040    7.6790 c3        1 742     -1.016000
     13 PAY        12.2360    1.2800    9.1300 p5        1 742      3.320000
     14 CAB        11.8750    2.7400    9.2840 c2        1 742     -1.690000
     15 CAC        11.3560    0.3970   10.2270 c3        1 742     -0.997000
     16 CAU        13.8220    1.0070    9.2360 c3        1 742     -0.956000
     17 CAV        14.1980   -0.3710    9.6350 c2        1 742     -1.394000
     18 PAX        14.6800   -1.1670    7.6870 p3        1 742      2.574000
     19 OAH        13.3510   -1.8500    7.4710 o         1 742     -1.227667
     20 OAI        14.8440    0.0270    6.7890 o         1 742     -1.227667
     21 OAE        15.8760   -2.0480    7.8010 o         1 742     -1.227667
     22 PAW        15.0470   -0.4060   11.0380 p5        1 742      2.087000
     23 OAF        16.1560    0.5890   11.2110 o         1 742     -0.934500
     24 OAG        13.9810    0.3530   12.1300 oh        1 742     -0.866000
     25 OAD        15.2120   -1.7380   11.6900 o         1 742     -0.934500
     26 HAV        13.3470   -1.0750    9.6510 ha        1 742      0.111000
     27 HAU1       14.3430    1.2640    8.2540 hc        1 742      0.151500
     28 HAU2       14.3170    1.7140    9.9660 hc        1 742      0.151500
     29 HAC1       11.2970   -0.6870    9.9740 hc        1 742      0.119000
     30 HAC2       11.8300    0.4530   11.2420 hc        1 742      0.119000
     31 HAC3       10.3150    0.7770   10.3300 hc        1 742      0.119000
     32 HAB1       12.5960    3.5210    9.5040 ha        1 742      0.100000
     33 HAB2       14.4290    1.0800   12.5400 ho        1 742      0.178000
     34 HAB3       10.8720    3.1430    9.1960 ha        1 742      0.100000
     35 HAT1       12.1640   -0.3340    7.4740 hc        1 742      0.193500
     36 HAT2       12.1170    1.3240    6.8450 hc        1 742      0.193500
     37 HAS1        9.8160   -0.2280    8.1690 hc        1 742      0.054000
     38 HAS2        9.7680    1.5760    8.0160 hc        1 742      0.054000
     39 HAR1       10.0750    1.3840    5.5450 hc        1 742      0.085500
     40 HAR2       10.2550   -0.4070    5.6920 hc        1 742      0.085500
     41 HAQ1        7.9240   -0.5590    6.6340 hc        1 742      0.065500
     42 HAQ2        7.7490    1.2330    6.5090 hc        1 742      0.065500
     43 HAP1        8.2960   -0.6940    4.1480 hc        1 742      0.077000
     44 HAP2        8.1110    1.0970    4.0230 hc        1 742      0.077000
     45 HAO1        5.9720   -0.8670    5.1010 hc        1 742      0.072000
     46 HAO2        5.7860    0.9240    4.9790 hc        1 742      0.072000
     47 HAN1        6.1570    0.7920    2.4910 hc        1 742      0.076500
     48 HAN2        6.3420   -0.9990    2.6150 hc        1 742      0.076500
     49 HAM1        4.0180   -1.1740    3.5680 hc        1 742      0.074500
     50 HAM2        3.8320    0.6180    3.4460 hc        1 742      0.074500
     51 HAL1        4.2050    0.4860    0.9580 hc        1 742      0.077500
     52 HAL2        4.3900   -1.3050    1.0810 hc        1 742      0.077500
     53 HAK1        2.0650   -1.4800    2.0350 hc        1 742      0.076000
     54 HAK2        1.8800    0.3110    1.9130 hc        1 742      0.076000
     55 HAJ1        2.4390   -1.6120   -0.4500 hc        1 742      0.076500
     56 HAJ2        2.2540    0.1790   -0.5730 hc        1 742      0.076500
     57 HAA1        0.1020   -1.7930    0.4680 hc        1 742      0.065667
     58 HAA2        0.1270   -0.9910   -1.1560 hc        1 742      0.065667
     59 HAA3       -0.0840    0.0020    0.3450 hc        1 742      0.065667
@<TRIPOS>BOND
     1    1    2 1   
     2    1   57 1   
     3    1   58 1   
     4    1   59 1   
     5    2    3 1   
     6    2   55 1   
     7    2   56 1   
     8    3    4 1   
     9    3   53 1   
    10    3   54 1   
    11    4    5 1   
    12    4   51 1   
    13    4   52 1   
    14    5    6 1   
    15    5   49 1   
    16    5   50 1   
    17    6    7 1   
    18    6   47 1   
    19    6   48 1   
    20    7    8 1   
    21    7   45 1   
    22    7   46 1   
    23    8    9 1   
    24    8   43 1   
    25    8   44 1   
    26    9   10 1   
    27    9   41 1   
    28    9   42 1   
    29   10   11 1   
    30   10   39 1   
    31   10   40 1   
    32   11   12 1   
    33   11   37 1   
    34   11   38 1   
    35   12   13 1   
    36   12   35 1   
    37   12   36 1   
    38   13   14 1   
    39   13   15 1   
    40   13   16 1   
    41   14   32 1   
    42   14   34 1   
    43   15   29 1   
    44   15   30 1   
    45   15   31 1   
    46   16   17 1   
    47   16   27 1   
    48   16   28 1   
    49   17   22 1   
    50   17   26 1   
    51   18   19 1   
    52   18   20 1   
    53   18   21 1   
    54   22   23 1   
    55   22   24 1   
    56   22   25 1   
    57   24   33 1   
@<TRIPOS>SUBSTRUCTURE
     1 742         1 TEMP              0 ****  ****    0 ROOT
