@<TRIPOS>MOLECULE
743
   59    61     1     0     0
SMALL
bcc


@<TRIPOS>ATOM
      1 C1          1.9860    1.6860    0.3410 ca        1 743      0.124900
      2 F1          2.0190    2.3040   -0.8640 f         1 743     -0.140900
      3 C2          3.1770    1.2130    0.9200 ca        1 743     -0.166500
      4 C3          3.1320    0.5790    2.1570 ca        1 743     -0.095000
      5 C4          1.9160    0.4080    2.8340 cp        1 743     -0.050000
      6 C5          0.7350    0.8860    2.2470 ca        1 743     -0.095000
      7 C6          0.7590    1.5200    1.0100 ca        1 743     -0.166500
      8 C7          1.8800   -0.2580    4.1340 cp        1 743     -0.034000
      9 C8          1.0530    0.2260    5.1580 ca        1 743     -0.120000
     10 C9          1.0230   -0.4070    6.3970 ca        1 743     -0.112500
     11 C10         1.8120   -1.5390    6.6320 ca        1 743     -0.116300
     12 C11         2.6380   -2.0250    5.6140 ca        1 743     -0.112500
     13 C12         2.6740   -1.3880    4.3760 ca        1 743     -0.120000
     14 C13         1.7300   -2.2250    7.9520 c3        1 743      0.195700
     15 O14         2.9580   -2.9180    8.3040 os        1 743     -0.187300
     16 N15         3.9440   -2.1220    8.6680 n2        1 743     -0.399200
     17 C16         5.1080   -2.6840    8.8680 c2        1 743      0.366300
     18 C17         5.4020   -4.1600    8.6740 c3        1 743     -0.326000
     19 C18         5.9190   -4.3850    7.2730 c         1 743      0.593100
     20 O18         5.1740   -4.2550    6.2990 o         1 743     -0.501100
     21 C19         7.3620   -4.8210    7.0580 c3        1 743     -0.097600
     22 C20         7.8180   -5.8050    8.1470 c3        1 743     -0.034000
     23 C21         7.6520   -5.1580    9.5150 c3        1 743     -0.181400
     24 C22         6.2480   -4.7100    9.7990 c         1 743      0.584100
     25 O22         5.7780   -4.7990   10.9380 o         1 743     -0.512100
     26 C23         8.2270   -3.6590    6.9700 c1        1 743      0.215700
     27 N23         8.9270   -2.7370    6.8650 n1        1 743     -0.349800
     28 C24         6.9800   -7.0740    8.0540 c3        1 743     -0.096600
     29 C25         9.2810   -6.1680    7.9380 c3        1 743     -0.096600
     30 C26         6.2540   -1.8210    9.3290 c3        1 743     -0.112700
     31 C27         6.1090   -1.4380   10.7890 c3        1 743     -0.084400
     32 C28         7.2980   -0.6420   11.2600 c3        1 743     -0.093100
     33 H2          4.1320    1.3490    0.3920 ha        1 743      0.149000
     34 H3          4.0660    0.2130    2.6130 ha        1 743      0.141500
     35 H5         -0.2250    0.7510    2.7690 ha        1 743      0.141500
     36 H6         -0.1670    1.8910    0.5490 ha        1 743      0.149000
     37 H8          0.4330    1.1180    4.9840 ha        1 743      0.136500
     38 H9          0.3780   -0.0110    7.1960 ha        1 743      0.147000
     39 H11         3.2690   -2.9110    5.7990 ha        1 743      0.147000
     40 H12         3.3260   -1.7800    3.5810 ha        1 743      0.136500
     41 H13         1.0040   -3.0840    7.9080 h1        1 743      0.070200
     42 H13A        1.4370   -1.5130    8.7670 h1        1 743      0.070200
     43 H17         4.4150   -4.7260    8.7320 hc        1 743      0.127700
     44 H19         7.4110   -5.3540    6.0580 hc        1 743      0.111700
     45 H21         8.3230   -4.2590    9.5900 hc        1 743      0.085700
     46 H21A        7.9730   -5.8830   10.3110 hc        1 743      0.085700
     47 H24         5.8960   -6.8390    8.1870 hc        1 743      0.048033
     48 H24A        7.2890   -7.7930    8.8500 hc        1 743      0.048033
     49 H24B        7.1220   -7.5610    7.0590 hc        1 743      0.048033
     50 H25         9.4280   -6.6100    6.9230 hc        1 743      0.048033
     51 H25A        9.5990   -6.9170    8.7020 hc        1 743      0.048033
     52 H25B        9.9320   -5.2650    8.0330 hc        1 743      0.048033
     53 H26         6.3130   -0.8900    8.7020 hc        1 743      0.058200
     54 H26A        7.2130   -2.3840    9.1750 hc        1 743      0.058200
     55 H27         5.1720   -0.8350   10.9260 hc        1 743      0.056200
     56 H27A        6.0010   -2.3680   11.4100 hc        1 743      0.056200
     57 H28         7.4090    0.2960   10.6630 hc        1 743      0.035033
     58 H28A        7.1730   -0.3640   12.3340 hc        1 743      0.035033
     59 H28B        8.2390   -1.2350   11.1570 hc        1 743      0.035033
@<TRIPOS>BOND
     1    1    2 1   
     2    1    3 ar  
     3    1    7 ar  
     4    3    4 ar  
     5    3   33 1   
     6    4    5 ar  
     7    4   34 1   
     8    5    6 ar  
     9    5    8 1   
    10    6    7 ar  
    11    6   35 1   
    12    7   36 1   
    13    8    9 ar  
    14    8   13 ar  
    15    9   10 ar  
    16    9   37 1   
    17   10   11 ar  
    18   10   38 1   
    19   11   12 ar  
    20   11   14 1   
    21   12   13 ar  
    22   12   39 1   
    23   13   40 1   
    24   14   15 1   
    25   14   41 1   
    26   14   42 1   
    27   15   16 1   
    28   16   17 2   
    29   17   18 1   
    30   17   30 1   
    31   18   19 1   
    32   18   24 1   
    33   18   43 1   
    34   19   20 2   
    35   19   21 1   
    36   21   22 1   
    37   21   26 1   
    38   21   44 1   
    39   22   23 1   
    40   22   28 1   
    41   22   29 1   
    42   23   24 1   
    43   23   45 1   
    44   23   46 1   
    45   24   25 2   
    46   26   27 3   
    47   28   47 1   
    48   28   48 1   
    49   28   49 1   
    50   29   50 1   
    51   29   51 1   
    52   29   52 1   
    53   30   31 1   
    54   30   53 1   
    55   30   54 1   
    56   31   32 1   
    57   31   55 1   
    58   31   56 1   
    59   32   57 1   
    60   32   58 1   
    61   32   59 1   
@<TRIPOS>SUBSTRUCTURE
     1 743         1 TEMP              0 ****  ****    0 ROOT
