@<TRIPOS>MOLECULE
743
   59    53     1     0     0
SMALL
bcc


@<TRIPOS>ATOM
      1 C1         -5.2600   -1.7470   -6.1690 c1        1 743      0.091000
      2 F1         -6.3030   -1.6420   -7.0280 f         1 743     -0.106000
      3 C2         -5.1790   -0.9040   -5.0720 c2        1 743     -0.166000
      4 C3         -4.1590   -1.0620   -4.1540 c1        1 743     -0.094000
      5 C4         -3.2130   -2.0700   -4.3340 c1        1 743     -0.042000
      6 C5         -3.2970   -2.9040   -5.4230 c1        1 743     -0.108500
      7 C6         -4.3220   -2.7440   -6.3440 c1        1 743     -0.166000
      8 C7         -2.1520   -2.2120   -3.4240 c1        1 743     -0.042000
      9 C8         -2.3240   -2.9670   -2.2710 c1        1 743     -0.112500
     10 C9         -1.2970   -3.0650   -1.3470 c1        1 743     -0.112500
     11 C10        -0.0870   -2.4040   -1.5750 c1        1 743     -0.111000
     12 C11         0.0820   -1.6560   -2.7200 c1        1 743     -0.117000
     13 C12        -0.9540   -1.5570   -3.6500 c1        1 743     -0.108500
     14 C13         0.9890   -2.3420   -0.4480 c3        1 743      0.041000
     15 O14         0.8310   -1.1080    0.3020 os        1 743     -0.230000
     16 N15         2.0860   -0.6310    0.7010 n2        1 743     -0.018000
     17 C16         2.2720   -0.1680    1.9800 c1        1 743     -0.068000
     18 C17         1.0770   -0.1710    3.0040 c2        1 743     -0.190000
     19 C18         1.2870    0.8790    4.1070 c2        1 743      0.254000
     20 O18         1.9850    0.6140    5.0790 o         1 743     -0.264000
     21 C19         1.1310    2.3450    3.6430 c3        1 743     -0.057000
     22 C20        -0.2190    2.5210    2.9270 c3        1 743     -0.033000
     23 C21        -0.4710    1.5040    1.7820 c3        1 743     -0.209000
     24 C22        -0.2610    0.0710    2.3040 c2        1 743      0.255000
     25 O22        -0.8590   -0.8600    1.7890 o         1 743     -0.285000
     26 C23         2.3190    2.8040    2.7700 c1        1 743     -0.136000
     27 N23         3.1910    3.1380    2.1280 n1        1 743     -0.022000
     28 C24        -0.2770    3.9140    2.3430 c3        1 743     -0.214000
     29 C25        -1.3260    2.3760    3.9450 c3        1 743     -0.214000
     30 C26         3.6490    0.3540    2.4130 c3        1 743     -0.124000
     31 C27         4.4600    0.7100    1.1850 c3        1 743     -0.156000
     32 C28         5.6950    1.4930    1.5990 c3        1 743     -0.212000
     33 H2         -5.8410   -0.2010   -4.9470 ha        1 743      0.149000
     34 H3         -4.0990   -0.4490   -3.3540 ha        1 743      0.142000
     35 H5         -2.6260   -3.6200   -5.5500 ha        1 743      0.138000
     36 H6         -4.3790   -3.3290   -7.1080 ha        1 743      0.149000
     37 H8         -3.1890   -3.4410   -2.1080 ha        1 743      0.148500
     38 H9         -1.4200   -3.6000   -0.5320 ha        1 743      0.148500
     39 H11         0.9080   -1.2040   -2.8750 ha        1 743      0.133000
     40 H12        -0.8290   -1.0090   -4.4900 ha        1 743      0.138000
     41 H13         0.8810   -3.0930    0.1430 h1        1 743      0.111000
     42 H13A        1.8960   -2.3700   -0.8540 h1        1 743      0.111000
     43 H17         1.1330   -1.0810    3.3600 ha        1 743      0.159000
     44 H19         1.2070    2.9770    4.4230 hc        1 743      0.150000
     45 H21         0.0270    1.7530    1.0230 hc        1 743      0.129500
     46 H21A       -1.3690    1.5660    1.4380 hc        1 743      0.129500
     47 H24         0.4410    4.0190    1.6790 hc        1 743      0.086833
     48 H24A       -0.1650    4.5540    3.0340 hc        1 743      0.086833
     49 H24B       -1.1420    4.0480    1.9120 hc        1 743      0.086833
     50 H25        -2.2030    2.5410    3.5060 hc        1 743      0.086833
     51 H25A       -1.3110    1.4480    4.3220 hc        1 743      0.086833
     52 H25B       -1.1940    3.0320    4.6780 hc        1 743      0.086833
     53 H26         4.1110   -0.3330    2.9200 hc        1 743      0.109000
     54 H26A        3.5370    1.1320    2.9590 hc        1 743      0.109000
     55 H27         3.9100    1.2600    0.5760 hc        1 743      0.087500
     56 H27A        4.7280   -0.0960    0.7340 hc        1 743      0.087500
     57 H28         5.4610    2.1140    2.3340 hc        1 743      0.075333
     58 H28A        6.0320    2.0110    0.8250 hc        1 743      0.075333
     59 H28B        6.3990    0.8640    1.9090 hc        1 743      0.075333
@<TRIPOS>BOND
     1    1    3 1   
     2    1    7 1   
     3    3    4 1   
     4    3   33 1   
     5    4   34 1   
     6    5    6 1   
     7    6   35 1   
     8    7   36 1   
     9    8   13 1   
    10    9   10 1   
    11    9   37 1   
    12   10   38 1   
    13   11   12 1   
    14   11   14 1   
    15   12   39 1   
    16   13   40 1   
    17   14   15 1   
    18   14   41 1   
    19   14   42 1   
    20   15   16 1   
    21   16   17 1   
    22   17   30 1   
    23   18   19 1   
    24   18   24 1   
    25   18   43 1   
    26   19   20 1   
    27   19   21 1   
    28   21   22 1   
    29   21   26 1   
    30   21   44 1   
    31   22   23 1   
    32   22   28 1   
    33   22   29 1   
    34   23   24 1   
    35   23   45 1   
    36   23   46 1   
    37   24   25 1   
    38   26   27 1   
    39   28   47 1   
    40   28   48 1   
    41   28   49 1   
    42   29   50 1   
    43   29   51 1   
    44   29   52 1   
    45   30   31 1   
    46   30   53 1   
    47   30   54 1   
    48   31   32 1   
    49   31   55 1   
    50   31   56 1   
    51   32   57 1   
    52   32   58 1   
    53   32   59 1   
@<TRIPOS>SUBSTRUCTURE
     1 743         1 TEMP              0 ****  ****    0 ROOT
