@<TRIPOS>MOLECULE
743
   59    61     1     0     0
SMALL
bcc


@<TRIPOS>ATOM
      1 C1         -7.2410    0.3860    1.9780 ca        1 743      0.124900
      2 F1         -8.3470    0.7940    2.6460 f         1 743     -0.140900
      3 C2         -5.9700    0.8300    2.3890 ca        1 743     -0.166500
      4 C3         -4.8410    0.4070    1.6960 ca        1 743     -0.095000
      5 C4         -4.9530   -0.4560    0.5970 cp        1 743     -0.050000
      6 C5         -6.2240   -0.8930    0.1980 ca        1 743     -0.095000
      7 C6         -7.3650   -0.4790    0.8760 ca        1 743     -0.166500
      8 C7         -3.7600   -0.8950   -0.1230 cp        1 743     -0.034000
      9 C8         -3.6430   -2.2210   -0.5640 ca        1 743     -0.120000
     10 C9         -2.5050   -2.6400   -1.2460 ca        1 743     -0.112500
     11 C10        -1.4660   -1.7390   -1.5060 ca        1 743     -0.116300
     12 C11        -1.5780   -0.4160   -1.0690 ca        1 743     -0.112500
     13 C12        -2.7130    0.0020   -0.3800 ca        1 743     -0.120000
     14 C13        -0.2760   -2.1980   -2.2760 c3        1 743      0.195700
     15 O14         0.9290   -1.4550   -1.9490 os        1 743     -0.187300
     16 N15         1.4490   -1.7560   -0.7740 n2        1 743     -0.399200
     17 C16         2.4570   -1.0240   -0.3750 c2        1 743      0.366300
     18 C17         3.0300    0.1530   -1.1420 c3        1 743     -0.326000
     19 C18         2.3650    1.4260   -0.6730 c         1 743      0.593100
     20 O18         1.1800    1.6470   -0.9310 o         1 743     -0.501100
     21 C19         3.1730    2.4680    0.0860 c3        1 743     -0.097600
     22 C20         4.6030    2.5800   -0.4660 c3        1 743     -0.034000
     23 C21         5.2810    1.2190   -0.3920 c3        1 743     -0.181400
     24 C22         4.5410    0.1410   -1.1290 c         1 743      0.584100
     25 O22         5.1570   -0.7450   -1.7300 o         1 743     -0.512100
     26 C23         3.1530    2.1780    1.5070 c1        1 743      0.215700
     27 N23         3.1200    1.9750    2.6520 n1        1 743     -0.349800
     28 C24         4.5440    3.0670   -1.9080 c3        1 743     -0.096600
     29 C25         5.3990    3.5830    0.3570 c3        1 743     -0.096600
     30 C26         3.1120   -1.3590    0.9400 c3        1 743     -0.112700
     31 C27         3.9700   -2.6060    0.8300 c3        1 743     -0.084400
     32 C28         4.6820   -2.8860    2.1280 c3        1 743     -0.093100
     33 H2         -5.8810    1.5040    3.2520 ha        1 743      0.149000
     34 H3         -3.8460    0.7500    2.0210 ha        1 743      0.141500
     35 H5         -6.3220   -1.5660   -0.6680 ha        1 743      0.141500
     36 H6         -8.3620   -0.8190    0.5600 ha        1 743      0.149000
     37 H8         -4.4530   -2.9380   -0.3590 ha        1 743      0.136500
     38 H9         -2.4210   -3.6860   -1.5770 ha        1 743      0.147000
     39 H11        -0.7560    0.2960   -1.2640 ha        1 743      0.147000
     40 H12        -2.7930    1.0470   -0.0430 ha        1 743      0.136500
     41 H13        -0.1020   -3.2980   -2.1450 h1        1 743      0.070200
     42 H13A       -0.3900   -1.9510   -3.3680 h1        1 743      0.070200
     43 H17         2.7360    0.0370   -2.2360 hc        1 743      0.127700
     44 H19         2.6600    3.4690   -0.0600 hc        1 743      0.111700
     45 H21         6.3220    1.2980   -0.8080 hc        1 743      0.085700
     46 H21A        5.3730    0.9020    0.6830 hc        1 743      0.085700
     47 H24         4.0690    4.0760   -1.9590 hc        1 743      0.048033
     48 H24A        5.5760    3.1370   -2.3290 hc        1 743      0.048033
     49 H24B        3.9500    2.3590   -2.5370 hc        1 743      0.048033
     50 H25         5.4940    3.2420    1.4160 hc        1 743      0.048033
     51 H25A        6.4240    3.6970   -0.0720 hc        1 743      0.048033
     52 H25B        4.8950    4.5790    0.3440 hc        1 743      0.048033
     53 H26         3.7440   -0.4880    1.2590 hc        1 743      0.058200
     54 H26A        2.3320   -1.5100    1.7340 hc        1 743      0.058200
     55 H27         3.3240   -3.4810    0.5570 hc        1 743      0.056200
     56 H27A        4.7180   -2.4720    0.0040 hc        1 743      0.056200
     57 H28         5.3040   -3.8090    2.0330 hc        1 743      0.035033
     58 H28A        5.3530   -2.0370    2.4050 hc        1 743      0.035033
     59 H28B        3.9490   -3.0380    2.9570 hc        1 743      0.035033
@<TRIPOS>BOND
     1    1    2 1   
     2    1    3 ar  
     3    1    7 ar  
     4    3    4 ar  
     5    3   33 1   
     6    4    5 ar  
     7    4   34 1   
     8    5    6 ar  
     9    5    8 1   
    10    6    7 ar  
    11    6   35 1   
    12    7   36 1   
    13    8    9 ar  
    14    8   13 ar  
    15    9   10 ar  
    16    9   37 1   
    17   10   11 ar  
    18   10   38 1   
    19   11   12 ar  
    20   11   14 1   
    21   12   13 ar  
    22   12   39 1   
    23   13   40 1   
    24   14   15 1   
    25   14   41 1   
    26   14   42 1   
    27   15   16 1   
    28   16   17 2   
    29   17   18 1   
    30   17   30 1   
    31   18   19 1   
    32   18   24 1   
    33   18   43 1   
    34   19   20 2   
    35   19   21 1   
    36   21   22 1   
    37   21   26 1   
    38   21   44 1   
    39   22   23 1   
    40   22   28 1   
    41   22   29 1   
    42   23   24 1   
    43   23   45 1   
    44   23   46 1   
    45   24   25 2   
    46   26   27 3   
    47   28   47 1   
    48   28   48 1   
    49   28   49 1   
    50   29   50 1   
    51   29   51 1   
    52   29   52 1   
    53   30   31 1   
    54   30   53 1   
    55   30   54 1   
    56   31   32 1   
    57   31   55 1   
    58   31   56 1   
    59   32   57 1   
    60   32   58 1   
    61   32   59 1   
@<TRIPOS>SUBSTRUCTURE
     1 743         1 TEMP              0 ****  ****    0 ROOT
