@<TRIPOS>MOLECULE
743
   59    61     1     0     0
SMALL
bcc


@<TRIPOS>ATOM
      1 C1          2.0300    1.8020    0.3920 ca        1 743      0.124900
      2 F1          2.0750    2.4560   -0.7930 f         1 743     -0.140900
      3 C2          3.2200    1.3430    0.9870 ca        1 743     -0.166500
      4 C3          3.1630    0.6720    2.2030 ca        1 743     -0.095000
      5 C4          1.9360    0.4500    2.8450 cp        1 743     -0.050000
      6 C5          0.7570    0.9140    2.2440 ca        1 743     -0.095000
      7 C6          0.7930    1.5850    1.0270 ca        1 743     -0.166500
      8 C7          1.8870   -0.2550    4.1240 cp        1 743     -0.034000
      9 C8          1.0240    0.1760    5.1410 ca        1 743     -0.120000
     10 C9          0.9820   -0.4930    6.3600 ca        1 743     -0.112500
     11 C10         1.7940   -1.6110    6.5820 ca        1 743     -0.116300
     12 C11         2.6560   -2.0450    5.5700 ca        1 743     -0.112500
     13 C12         2.7050   -1.3710    4.3530 ca        1 743     -0.120000
     14 C13         1.7000   -2.3370    7.8780 c3        1 743      0.195700
     15 O14         2.9370   -3.0100    8.2400 os        1 743     -0.187300
     16 N15         3.8940   -2.2010    8.6500 n2        1 743     -0.399200
     17 C16         5.0670   -2.7390    8.8610 c2        1 743      0.366300
     18 C17         5.4030   -4.2010    8.6300 c3        1 743     -0.326000
     19 C18         5.9590   -4.3700    7.2360 c         1 743      0.593100
     20 O18         5.2340   -4.2300    6.2480 o         1 743     -0.501100
     21 C19         7.4160   -4.7630    7.0440 c3        1 743     -0.097600
     22 C20         7.8720   -5.7690    8.1130 c3        1 743     -0.034000
     23 C21         7.6570   -5.1680    9.4950 c3        1 743     -0.181400
     24 C22         6.2360   -4.7640    9.7580 c         1 743      0.584100
     25 O22         5.7420   -4.8990   10.8820 o         1 743     -0.512100
     26 C23         8.2530   -3.5790    7.0110 c1        1 743      0.215700
     27 N23         8.9310   -2.6360    6.9510 n1        1 743     -0.349800
     28 C24         7.0690   -7.0550    7.9620 c3        1 743     -0.096600
     29 C25         9.3490   -6.0880    7.9290 c3        1 743     -0.096600
     30 C26         6.1790   -1.8620    9.3740 c3        1 743     -0.112700
     31 C27         5.9900   -1.5280   10.8420 c3        1 743     -0.084400
     32 C28         7.1480   -0.7160   11.3640 c3        1 743     -0.093100
     33 H2          4.1820    1.5190    0.4850 ha        1 743      0.149000
     34 H3          4.0940    0.3170    2.6710 ha        1 743      0.141500
     35 H5         -0.2120    0.7390    2.7380 ha        1 743      0.141500
     36 H6         -0.1320    1.9450    0.5550 ha        1 743      0.149000
     37 H8          0.3850    1.0570    4.9780 ha        1 743      0.136500
     38 H9          0.3080   -0.1380    7.1550 ha        1 743      0.147000
     39 H11         3.3060   -2.9200    5.7440 ha        1 743      0.147000
     40 H12         3.3850   -1.7230    3.5620 ha        1 743      0.136500
     41 H13         1.3710   -1.6570    8.7070 h1        1 743      0.070200
     42 H13A        0.9980   -3.2130    7.7920 h1        1 743      0.070200
     43 H17         4.4300   -4.7930    8.6480 hc        1 743      0.127700
     44 H19         7.5030   -5.2650    6.0290 hc        1 743      0.111700
     45 H21         8.3030   -4.2550    9.6140 hc        1 743      0.085700
     46 H21A        7.9780   -5.9080   10.2770 hc        1 743      0.085700
     47 H24         7.3770   -7.7900    8.7440 hc        1 743      0.048033
     48 H24A        7.2470   -7.5080    6.9570 hc        1 743      0.048033
     49 H24B        5.9760   -6.8510    8.0750 hc        1 743      0.048033
     50 H25         9.5300   -6.4960    6.9050 hc        1 743      0.048033
     51 H25A        9.9730   -5.1730    8.0670 hc        1 743      0.048033
     52 H25B        9.6680   -6.8530    8.6780 hc        1 743      0.048033
     53 H26         7.1550   -2.3970    9.2280 hc        1 743      0.058200
     54 H26A        6.2290   -0.9120    8.7770 hc        1 743      0.058200
     55 H27         5.8920   -2.4780   11.4320 hc        1 743      0.056200
     56 H27A        5.0360   -0.9530   10.9740 hc        1 743      0.056200
     57 H28         8.1060   -1.2820   11.2660 hc        1 743      0.035033
     58 H28A        6.9900   -0.4740   12.4430 hc        1 743      0.035033
     59 H28B        7.2470    0.2410   10.7980 hc        1 743      0.035033
@<TRIPOS>BOND
     1    1    2 1   
     2    1    3 ar  
     3    1    7 ar  
     4    3    4 ar  
     5    3   33 1   
     6    4    5 ar  
     7    4   34 1   
     8    5    6 ar  
     9    5    8 1   
    10    6    7 ar  
    11    6   35 1   
    12    7   36 1   
    13    8    9 ar  
    14    8   13 ar  
    15    9   10 ar  
    16    9   37 1   
    17   10   11 ar  
    18   10   38 1   
    19   11   12 ar  
    20   11   14 1   
    21   12   13 ar  
    22   12   39 1   
    23   13   40 1   
    24   14   15 1   
    25   14   41 1   
    26   14   42 1   
    27   15   16 1   
    28   16   17 2   
    29   17   18 1   
    30   17   30 1   
    31   18   19 1   
    32   18   24 1   
    33   18   43 1   
    34   19   20 2   
    35   19   21 1   
    36   21   22 1   
    37   21   26 1   
    38   21   44 1   
    39   22   23 1   
    40   22   28 1   
    41   22   29 1   
    42   23   24 1   
    43   23   45 1   
    44   23   46 1   
    45   24   25 2   
    46   26   27 3   
    47   28   47 1   
    48   28   48 1   
    49   28   49 1   
    50   29   50 1   
    51   29   51 1   
    52   29   52 1   
    53   30   31 1   
    54   30   53 1   
    55   30   54 1   
    56   31   32 1   
    57   31   55 1   
    58   31   56 1   
    59   32   57 1   
    60   32   58 1   
    61   32   59 1   
@<TRIPOS>SUBSTRUCTURE
     1 743         1 TEMP              0 ****  ****    0 ROOT
