@<TRIPOS>MOLECULE
744
   46    45     1     0     0
SMALL
bcc


@<TRIPOS>ATOM
      1 C1         -0.9900   -2.7200   -3.6640 c3        1 744     -0.153500
      2 C2          0.4970   -2.3790   -3.8300 c3        1 744     -0.166500
      3 C3          1.2280   -2.3330   -2.5120 c3        1 744      0.050000
      4 C4          1.0060   -3.6070   -1.6710 c3        1 744     -0.166500
      5 C5         -0.4780   -3.9450   -1.5050 c3        1 744     -0.153500
      6 C6         -1.2120   -3.9880   -2.8260 c3        1 744     -0.157000
      7 C7          0.6020    0.1740   -2.2840 c1        1 744      0.303000
      8 C8         -0.3740    0.8570   -1.4530 c3        1 744     -0.196000
      9 C9         -0.2810    0.1020   -0.0760 c3        1 744     -0.147000
     10 C10         0.6120   -1.1370   -0.4140 c3        1 744     -0.023000
     11 N11         0.7670   -1.1910   -1.7600 n2        1 744     -0.326000
     12 C12         0.2610    0.9030    1.0780 c2        1 744      0.314000
     13 N13        -0.5800    1.8470    1.7460 n         1 744     -0.326000
     14 O14         1.3940    0.6970    1.4890 o         1 744     -0.339000
     15 O15         1.2700    0.6910   -3.1980 o         1 744     -0.346000
     16 C15        -0.0920    2.5590    2.9090 c2        1 744      0.083000
     17 C20        -0.3480    3.9190    3.0440 c2        1 744     -0.119000
     18 C23        -1.1240    4.6650    1.9510 c3        1 744     -0.181000
     19 C19        -0.0170    4.5760    4.2320 c1        1 744     -0.098000
     20 C18         0.5680    3.8700    5.2820 c2        1 744     -0.146000
     21 C17         0.8240    2.5110    5.1480 c1        1 744     -0.040000
     22 CL1         1.5930    1.6440    6.4350 cl        1 744     -0.011000
     23 C16         0.4950    1.8520    3.9620 c2        1 744     -0.146000
     24 HN13       -1.4280    2.0020    1.4360 hn        1 744      0.234000
     25 H9         -1.1460   -0.1950    0.3230 hc        1 744      0.125000
     26 H101        0.1830   -1.9400   -0.1050 h1        1 744      0.108500
     27 H102        1.5050   -1.0420    0.0260 h1        1 744      0.108500
     28 H81        -1.2200    0.9900   -1.9460 hc        1 744      0.124000
     29 H82        -0.1210    1.7980   -1.2580 hc        1 744      0.124000
     30 H3          2.2030   -2.2290   -2.6880 h1        1 744      0.079000
     31 H41         1.4590   -4.3670   -2.1160 hc        1 744      0.094750
     32 H42         1.4050   -3.4760   -0.7830 hc        1 744      0.094750
     33 H4         -0.8970   -3.2640   -0.9290 hc        1 744      0.081000
     34 H5         -0.5590   -4.8300   -1.0660 hc        1 744      0.081000
     35 H7         -0.8980   -4.7720   -3.3420 hc        1 744      0.078500
     36 H6         -2.1760   -4.0870   -2.6500 hc        1 744      0.078500
     37 H8         -1.4380   -1.9720   -3.2280 hc        1 744      0.081000
     38 H1         -1.3840   -2.8530   -4.5490 hc        1 744      0.081000
     39 H2          0.5780   -1.4990   -4.2720 hc        1 744      0.094750
     40 H10         0.9110   -3.0510   -4.3920 hc        1 744      0.094750
     41 H19        -0.1970    5.5300    4.3270 DU        1 744      0.138000
     42 H18         0.7980    4.3340    6.1150 ha        1 744      0.149000
     43 H16         0.6750    0.8870    3.8670 ha        1 744      0.184000
     44 H231       -0.9660    5.6330    2.0380 hc        1 744      0.084000
     45 H232       -0.8180    4.3600    1.0620 hc        1 744      0.084000
     46 H233       -2.0910    4.4790    2.0480 hc        1 744      0.084000
@<TRIPOS>BOND
     1    1    2 1   
     2    1    6 1   
     3    1   37 1   
     4    1   38 1   
     5    2    3 1   
     6    2   39 1   
     7    2   40 1   
     8    3    4 1   
     9    3   11 1   
    10    3   30 1   
    11    4    5 1   
    12    4   31 1   
    13    4   32 1   
    14    5    6 1   
    15    5   33 1   
    16    5   34 1   
    17    6   35 1   
    18    6   36 1   
    19    7    8 1   
    20    7   15 1   
    21    8    9 1   
    22    8   28 1   
    23    8   29 1   
    24    9   10 1   
    25    9   12 1   
    26    9   25 1   
    27   10   11 1   
    28   10   26 1   
    29   10   27 1   
    30   12   13 1   
    31   12   14 1   
    32   13   16 1   
    33   13   24 1   
    34   16   17 1   
    35   16   23 1   
    36   17   18 1   
    37   17   19 1   
    38   18   44 1   
    39   18   45 1   
    40   18   46 1   
    41   19   20 1   
    42   20   21 1   
    43   20   42 1   
    44   21   23 1   
    45   23   43 1   
@<TRIPOS>SUBSTRUCTURE
     1 744         1 TEMP              0 ****  ****    0 ROOT
