@<TRIPOS>MOLECULE
744
   47    49     1     0     0
SMALL
bcc


@<TRIPOS>ATOM
      1 C1          0.2560    0.6610    0.2970 c3        1 744     -0.078400
      2 C2          1.7690    0.6150    0.2450 c3        1 744     -0.088400
      3 C3          2.3440    0.5560    1.6710 c3        1 744      0.102700
      4 C4          1.8770    1.7940    2.4550 c3        1 744     -0.088400
      5 C5          0.3630    1.8370    2.4990 c3        1 744     -0.078400
      6 C6         -0.2350    1.8420    1.1080 c3        1 744     -0.082400
      7 C7          4.4060   -0.8650    1.8020 c         1 744      0.696500
      8 C8          5.8900   -0.7230    1.4710 c3        1 744     -0.169400
      9 C9          6.0910    0.7560    1.1110 c3        1 744     -0.149700
     10 C10         4.6730    1.3950    1.1890 c3        1 744      0.090000
     11 N11         3.7840    0.3880    1.7180 n         1 744     -0.473800
     12 C12         7.0590    1.4130    2.0550 c         1 744      0.564100
     13 N13         7.4000    2.8700    1.7500 n4        1 744     -0.551200
     14 O14         7.6500    0.9360    3.0080 o         1 744     -0.396100
     15 O15         3.8550   -1.9170    2.1340 o         1 744     -0.557500
     16 C15         6.6720    3.8090    2.6120 ca        1 744     -0.056400
     17 C20         5.8350    4.7940    2.0470 ca        1 744     -0.048300
     18 C23         5.6250    4.9160    0.5850 c3        1 744     -0.089800
     19 C19         5.1920    5.6860    2.9150 ca        1 744     -0.100000
     20 C18         5.3680    5.6140    4.2930 ca        1 744     -0.066000
     21 C17         6.2050    4.6300    4.8390 ca        1 744      0.028400
     22 CL1         6.4250    4.5320    6.5080 cl        1 744     -0.008400
     23 C16         6.8630    3.7240    4.0040 ca        1 744     -0.102000
     24 HN13        8.4070    3.0150    1.9150 hn        1 744      0.463300
     25 H9          6.4960    0.8480    0.0660 hc        1 744      0.103700
     26 H101        4.3560    1.7230    0.1590 h1        1 744      0.059200
     27 H102        4.6580    2.2950    1.8650 h1        1 744      0.059200
     28 H81         6.5020   -1.0500    2.3500 hc        1 744      0.115200
     29 H82         6.1390   -1.3850    0.6020 hc        1 744      0.115200
     30 H3          1.9170   -0.3650    2.1810 h1        1 744      0.102700
     31 H41         2.2660    2.7240    1.9640 hc        1 744      0.040450
     32 H42         2.2790    1.7620    3.5000 hc        1 744      0.040450
     33 H4         -0.0200    0.9500    3.0690 hc        1 744      0.055200
     34 H5          0.0380    2.7570    3.0520 hc        1 744      0.055200
     35 H7          0.0370    2.7970    0.5850 hc        1 744      0.048700
     36 H6         -1.3530    1.8070    1.1810 hc        1 744      0.048700
     37 H8         -0.1460    0.7280   -0.7480 hc        1 744      0.055200
     38 H1         -0.1330   -0.2910    0.7460 hc        1 744      0.055200
     39 H2          2.0930   -0.2880   -0.3360 hc        1 744      0.040450
     40 H10         2.1540    1.5240   -0.2870 hc        1 744      0.040450
     41 H19         4.5350    6.4660    2.4930 ha        1 744      0.174000
     42 H18         4.8500    6.3300    4.9550 ha        1 744      0.184000
     43 H16         7.5190    2.9500    4.4440 ha        1 744      0.181000
     44 H231        4.9120    5.7490    0.3520 hc        1 744      0.067700
     45 H232        6.5870    5.1460    0.0590 hc        1 744      0.067700
     46 H233        5.1890    3.9740    0.1630 hc        1 744      0.067700
     47 H132        7.1890    3.0740    0.7670 hn        1 744      0.463300
@<TRIPOS>BOND
     1    1    2 1   
     2    1    6 1   
     3    1   37 1   
     4    1   38 1   
     5    2    3 1   
     6    2   39 1   
     7    2   40 1   
     8    3    4 1   
     9    3   11 1   
    10    3   30 1   
    11    4    5 1   
    12    4   31 1   
    13    4   32 1   
    14    5    6 1   
    15    5   33 1   
    16    5   34 1   
    17    6   35 1   
    18    6   36 1   
    19    7    8 1   
    20    7   11 1   
    21    7   15 2   
    22    8    9 1   
    23    8   28 1   
    24    8   29 1   
    25    9   10 1   
    26    9   12 1   
    27    9   25 1   
    28   10   11 1   
    29   10   26 1   
    30   10   27 1   
    31   12   13 1   
    32   12   14 2   
    33   13   16 1   
    34   13   24 1   
    35   13   47 1   
    36   16   17 ar  
    37   16   23 ar  
    38   17   18 1   
    39   17   19 ar  
    40   18   44 1   
    41   18   45 1   
    42   18   46 1   
    43   19   20 ar  
    44   19   41 1   
    45   20   21 ar  
    46   20   42 1   
    47   21   22 1   
    48   21   23 ar  
    49   23   43 1   
@<TRIPOS>SUBSTRUCTURE
     1 744         1 TEMP              0 ****  ****    0 ROOT
