@<TRIPOS>MOLECULE
744
   46    48     1     0     0
SMALL
bcc


@<TRIPOS>ATOM
      1 C1          0.0610    0.3210   -0.3570 c3        1 744     -0.075900
      2 C2          1.5620    0.4760   -0.2290 c3        1 744     -0.090900
      3 C3          2.0310   -0.0240    1.1500 c3        1 744      0.111700
      4 C4          1.3110    0.7870    2.2440 c3        1 744     -0.090900
      5 C5         -0.1890    0.6300    2.1090 c3        1 744     -0.075900
      6 C6         -0.6700    1.0650    0.7410 c3        1 744     -0.080400
      7 C7          4.1970   -1.0480    1.8910 c         1 744      0.699500
      8 C8          5.6290   -0.5870    2.1300 c3        1 744     -0.154400
      9 C9          5.7000    0.8380    1.5750 c3        1 744     -0.155700
     10 C10         4.2470    1.1910    1.1570 c3        1 744      0.090000
     11 N11         3.4700   -0.0240    1.2750 n         1 744     -0.479800
     12 C12         6.2490    1.8340    2.5890 c         1 744      0.670100
     13 N13         6.3540    3.1420    2.1310 ns        1 744     -0.473100
     14 O14         6.5960    1.4830    3.7290 o         1 744     -0.574100
     15 O15         3.7430   -2.1670    2.1670 o         1 744     -0.613500
     16 C15         6.8050    4.2630    2.8480 ca        1 744      0.077600
     17 C20         6.5310    5.5650    2.3410 ca        1 744     -0.128300
     18 C23         5.7620    5.7670    1.0900 c3        1 744     -0.054800
     19 C19         7.0000    6.6810    3.0370 ca        1 744     -0.097000
     20 C18         7.7250    6.5540    4.2170 ca        1 744     -0.147000
     21 C17         7.9900    5.2760    4.7110 ca        1 744      0.039400
     22 Cl1         8.8770    5.0990    6.1510 cl        1 744     -0.087400
     23 C16         7.5430    4.1350    4.0430 ca        1 744     -0.147000
     24 HN13        5.9930    3.3270    1.2210 hn        1 744      0.318500
     25 H9          6.3650    0.8540    0.6690 hc        1 744      0.083700
     26 H101        3.8190    2.0010    1.8100 h1        1 744      0.048700
     27 H102        4.2230    1.5490    0.0910 h1        1 744      0.048700
     28 H81         6.3380   -1.2700    1.6040 hc        1 744      0.102700
     29 H82         5.8490   -0.6220    3.2290 hc        1 744      0.102700
     30 H3          1.7120   -1.1070    1.2570 h1        1 744      0.088700
     31 H41         1.5850    1.8710    2.1590 hc        1 744      0.044700
     32 H42         1.6340    0.4300    3.2560 hc        1 744      0.044700
     33 H4         -0.4700   -0.4420    2.2820 hc        1 744      0.045200
     34 H5         -0.6970    1.2430    2.8990 hc        1 744      0.045200
     35 H7         -1.7720    0.8760    0.6520 hc        1 744      0.041200
     36 H6         -0.5070    2.1680    0.6190 hc        1 744      0.041200
     37 H8         -0.2650    0.7100   -1.3570 hc        1 744      0.045200
     38 H1         -0.2070   -0.7670   -0.3150 hc        1 744      0.045200
     39 H2          2.0690   -0.1080   -1.0400 hc        1 744      0.044700
     40 H10         1.8440    1.5540   -0.3570 hc        1 744      0.044700
     41 H19         6.7880    7.6880    2.6420 ha        1 744      0.138000
     42 H18         8.0810    7.4480    4.7500 ha        1 744      0.150000
     43 H16         7.7680    3.1390    4.4630 ha        1 744      0.185000
     44 H231        5.6160    6.8570    0.8820 hc        1 744      0.044033
     45 H232        4.7500    5.2950    1.1630 hc        1 744      0.044033
     46 H233        6.3020    5.3240    0.2150 hc        1 744      0.044033
@<TRIPOS>BOND
     1    1    2 1   
     2    1    6 1   
     3    1   37 1   
     4    1   38 1   
     5    2    3 1   
     6    2   39 1   
     7    2   40 1   
     8    3    4 1   
     9    3   11 1   
    10    3   30 1   
    11    4    5 1   
    12    4   31 1   
    13    4   32 1   
    14    5    6 1   
    15    5   33 1   
    16    5   34 1   
    17    6   35 1   
    18    6   36 1   
    19    7    8 1   
    20    7   11 1   
    21    7   15 2   
    22    8    9 1   
    23    8   28 1   
    24    8   29 1   
    25    9   10 1   
    26    9   12 1   
    27    9   25 1   
    28   10   11 1   
    29   10   26 1   
    30   10   27 1   
    31   12   13 1   
    32   12   14 2   
    33   13   16 1   
    34   13   24 1   
    35   16   17 ar  
    36   16   23 ar  
    37   17   18 1   
    38   17   19 ar  
    39   18   44 1   
    40   18   45 1   
    41   18   46 1   
    42   19   20 ar  
    43   19   41 1   
    44   20   21 ar  
    45   20   42 1   
    46   21   22 1   
    47   21   23 ar  
    48   23   43 1   
@<TRIPOS>SUBSTRUCTURE
     1 744         1 TEMP              0 ****  ****    0 ROOT
