@<TRIPOS>MOLECULE
744
   46    48     1     0     0
SMALL
bcc


@<TRIPOS>ATOM
      1 C1          0.0580    0.3370   -0.3630 c3        1 744     -0.075900
      2 C2          1.5590    0.4880   -0.2340 c3        1 744     -0.090900
      3 C3          2.0260   -0.0170    1.1430 c3        1 744      0.111700
      4 C4          1.3070    0.7910    2.2400 c3        1 744     -0.090900
      5 C5         -0.1930    0.6380    2.1030 c3        1 744     -0.075900
      6 C6         -0.6730    1.0790    0.7360 c3        1 744     -0.080400
      7 C7          4.1890   -1.0480    1.8830 c         1 744      0.699500
      8 C8          5.6220   -0.5910    2.1250 c3        1 744     -0.154400
      9 C9          5.6970    0.8350    1.5730 c3        1 744     -0.155700
     10 C10         4.2450    1.1920    1.1540 c3        1 744      0.090000
     11 N11         3.4650   -0.0220    1.2690 n         1 744     -0.479800
     12 C12         6.2470    1.8270    2.5910 c         1 744      0.670100
     13 N13         6.3560    3.1360    2.1350 n         1 744     -0.473100
     14 O14         6.5910    1.4730    3.7300 o         1 744     -0.574100
     15 O15         3.7320   -2.1670    2.1550 o         1 744     -0.613500
     16 C15         6.8090    4.2550    2.8550 ca        1 744      0.077600
     17 C20         6.5410    5.5580    2.3490 ca        1 744     -0.128300
     18 C23         5.7760    5.7650    1.0970 c3        1 744     -0.054800
     19 C19         7.0120    6.6710    3.0480 ca        1 744     -0.097000
     20 C18         7.7340    6.5400    4.2290 ca        1 744     -0.147000
     21 C17         7.9940    5.2600    4.7220 ca        1 744      0.039400
     22 CL1         8.8770    5.0780    6.1640 cl        1 744     -0.087400
     23 C16         7.5450    4.1220    4.0520 ca        1 744     -0.147000
     24 HN13        5.9970    3.3230    1.2250 hn        1 744      0.318500
     25 H9          6.3620    0.8510    0.6680 hc        1 744      0.083700
     26 H101        3.8180    2.0020    1.8100 h1        1 744      0.048700
     27 H102        4.2220    1.5530    0.0900 h1        1 744      0.048700
     28 H81         5.8410   -0.6290    3.2240 hc        1 744      0.102700
     29 H82         6.3300   -1.2750    1.5980 hc        1 744      0.102700
     30 H3          1.7040   -1.1010    1.2460 h1        1 744      0.088700
     31 H41         1.6290    0.4300    3.2510 hc        1 744      0.044700
     32 H42         1.5830    1.8750    2.1590 hc        1 744      0.044700
     33 H4         -0.7000    1.2500    2.8950 hc        1 744      0.045200
     34 H5         -0.4770   -0.4340    2.2730 hc        1 744      0.045200
     35 H7         -0.5070    2.1820    0.6180 hc        1 744      0.041200
     36 H6         -1.7750    0.8920    0.6470 hc        1 744      0.041200
     37 H8         -0.2130   -0.7510   -0.3260 hc        1 744      0.045200
     38 H1         -0.2670    0.7300   -1.3620 hc        1 744      0.045200
     39 H2          1.8430    1.5660   -0.3580 hc        1 744      0.044700
     40 H10         2.0640   -0.0950   -1.0470 hc        1 744      0.044700
     41 H19         6.8040    7.6790    2.6540 ha        1 744      0.138000
     42 H18         8.0930    7.4310    4.7640 ha        1 744      0.150000
     43 H16         7.7650    3.1240    4.4700 ha        1 744      0.185000
     44 H231        4.7620    5.2960    1.1670 hc        1 744      0.044033
     45 H232        6.3160    5.3210    0.2230 hc        1 744      0.044033
     46 H233        5.6340    6.8550    0.8910 hc        1 744      0.044033
@<TRIPOS>BOND
     1    1    2 1   
     2    1    6 1   
     3    1   37 1   
     4    1   38 1   
     5    2    3 1   
     6    2   39 1   
     7    2   40 1   
     8    3    4 1   
     9    3   11 1   
    10    3   30 1   
    11    4    5 1   
    12    4   31 1   
    13    4   32 1   
    14    5    6 1   
    15    5   33 1   
    16    5   34 1   
    17    6   35 1   
    18    6   36 1   
    19    7    8 1   
    20    7   11 1   
    21    7   15 2   
    22    8    9 1   
    23    8   28 1   
    24    8   29 1   
    25    9   10 1   
    26    9   12 1   
    27    9   25 1   
    28   10   11 1   
    29   10   26 1   
    30   10   27 1   
    31   12   13 1   
    32   12   14 2   
    33   13   16 1   
    34   13   24 1   
    35   16   17 ar  
    36   16   23 ar  
    37   17   18 1   
    38   17   19 ar  
    39   18   44 1   
    40   18   45 1   
    41   18   46 1   
    42   19   20 ar  
    43   19   41 1   
    44   20   21 ar  
    45   20   42 1   
    46   21   22 1   
    47   21   23 ar  
    48   23   43 1   
@<TRIPOS>SUBSTRUCTURE
     1 744         1 TEMP              0 ****  ****    0 ROOT
