@<TRIPOS>MOLECULE
744
   46    48     1     0     0
SMALL
bcc


@<TRIPOS>ATOM
      1 C1         -1.9970    1.9380   -2.4670 c3        1 744     -0.075900
      2 C2         -1.1050    2.7200   -3.4090 c3        1 744     -0.090900
      3 C3          0.3280    2.1560   -3.3730 c3        1 744      0.111700
      4 C4          0.8600    2.2440   -1.9300 c3        1 744     -0.090900
      5 C5         -0.0370    1.4630   -0.9940 c3        1 744     -0.075900
      6 C6         -1.4660    1.9620   -1.0490 c3        1 744     -0.080400
      7 C7          2.1210    2.0780   -5.1240 c         1 744      0.699500
      8 C8          3.0620    3.0620   -5.8060 c3        1 744     -0.154400
      9 C9          2.5900    4.4520   -5.3730 c3        1 744     -0.155700
     10 C10         1.4630    4.1990   -4.3350 c3        1 744      0.090000
     11 N11         1.1880    2.7780   -4.3520 n         1 744     -0.479800
     12 C12         3.7150    5.2950   -4.7850 c         1 744      0.670100
     13 N13         3.3450    6.5750   -4.3910 n         1 744     -0.473100
     14 O14         4.8770    4.8640   -4.6950 o         1 744     -0.574100
     15 O15         2.1470    0.8460   -5.2530 o         1 744     -0.613500
     16 C15         4.1630    7.5560   -3.8040 ca        1 744      0.077600
     17 C20         3.5540    8.6710   -3.1620 ca        1 744     -0.128300
     18 C23         2.0800    8.8110   -3.0760 c3        1 744     -0.054800
     19 C19         4.3620    9.6610   -2.6010 ca        1 744     -0.097000
     20 C18         5.7500    9.5840   -2.6490 ca        1 744     -0.147000
     21 C17         6.3430    8.4880   -3.2780 ca        1 744      0.039400
     22 CL1         8.0390    8.3770   -3.3490 cl        1 744     -0.087400
     23 C16         5.5710    7.4800   -3.8560 ca        1 744     -0.147000
     24 HN13        2.3760    6.8000   -4.4520 hn        1 744      0.318500
     25 H9          2.1660    4.9970   -6.2600 hc        1 744      0.083700
     26 H101        1.7740    4.5300   -3.3050 h1        1 744      0.048700
     27 H102        0.5340    4.7640   -4.6210 h1        1 744      0.048700
     28 H81         4.1140    2.8540   -5.4790 hc        1 744      0.102700
     29 H82         3.0040    2.9340   -6.9150 hc        1 744      0.102700
     30 H3          0.2800    1.0590   -3.6570 h1        1 744      0.088700
     31 H41         0.9030    3.3150   -1.6030 hc        1 744      0.044700
     32 H42         1.9000    1.8290   -1.8830 hc        1 744      0.044700
     33 H4          0.3530    1.5560    0.0540 hc        1 744      0.045200
     34 H5         -0.0090    0.3760   -1.2680 hc        1 744      0.045200
     35 H7         -2.1130    1.3230   -0.3950 hc        1 744      0.041200
     36 H6         -1.5120    3.0090   -0.6500 hc        1 744      0.041200
     37 H8         -2.0730    0.8760   -2.8200 hc        1 744      0.045200
     38 H1         -3.0290    2.3750   -2.4900 hc        1 744      0.045200
     39 H2         -1.5140    2.6560   -4.4500 hc        1 744      0.044700
     40 H10        -1.0940    3.8000   -3.1100 hc        1 744      0.044700
     41 H19         3.8890   10.5240   -2.1050 ha        1 744      0.138000
     42 H18         6.3670   10.3740   -2.1970 ha        1 744      0.150000
     43 H16         6.0720    6.6260   -4.3440 ha        1 744      0.185000
     44 H231        1.6260    7.9290   -2.5590 hc        1 744      0.044033
     45 H232        1.7990    9.7260   -2.4990 hc        1 744      0.044033
     46 H233        1.6290    8.9000   -4.0960 hc        1 744      0.044033
@<TRIPOS>BOND
     1    1    2 1   
     2    1    6 1   
     3    1   37 1   
     4    1   38 1   
     5    2    3 1   
     6    2   39 1   
     7    2   40 1   
     8    3    4 1   
     9    3   11 1   
    10    3   30 1   
    11    4    5 1   
    12    4   31 1   
    13    4   32 1   
    14    5    6 1   
    15    5   33 1   
    16    5   34 1   
    17    6   35 1   
    18    6   36 1   
    19    7    8 1   
    20    7   11 1   
    21    7   15 2   
    22    8    9 1   
    23    8   28 1   
    24    8   29 1   
    25    9   10 1   
    26    9   12 1   
    27    9   25 1   
    28   10   11 1   
    29   10   26 1   
    30   10   27 1   
    31   12   13 1   
    32   12   14 2   
    33   13   16 1   
    34   13   24 1   
    35   16   17 ar  
    36   16   23 ar  
    37   17   18 1   
    38   17   19 ar  
    39   18   44 1   
    40   18   45 1   
    41   18   46 1   
    42   19   20 ar  
    43   19   41 1   
    44   20   21 ar  
    45   20   42 1   
    46   21   22 1   
    47   21   23 ar  
    48   23   43 1   
@<TRIPOS>SUBSTRUCTURE
     1 744         1 TEMP              0 ****  ****    0 ROOT
