@<TRIPOS>MOLECULE
745
   41    44     1     0     0
SMALL
bcc


@<TRIPOS>ATOM
      1 C1         -0.0880   -0.0540    0.0200 ca        1 745      0.016700
      2 C2          1.2250    0.3850    0.0560 ca        1 745     -0.131000
      3 C3          1.9720    0.3450    1.2590 ca        1 745     -0.001000
      4 C4          1.3640   -0.1540    2.4430 ca        1 745     -0.061000
      5 C5          0.0160   -0.6000    2.3890 ca        1 745     -0.107000
      6 C6         -0.6870   -0.5510    1.2110 ca        1 745     -0.107000
      7 C10         3.3210    0.8000    1.3120 ca        1 745     -0.079000
      8 C11         4.0330    0.7520    2.4830 ca        1 745     -0.142000
      9 C12         3.4200    0.2460    3.6620 ca        1 745     -0.280900
     10 C13         2.1120   -0.1930    3.6460 ca        1 745     -0.035000
     11 C17         4.1880    0.2320    4.9200 ce        1 745      0.599800
     12 N18         4.0370    0.8510    6.0270 n2        1 745     -0.719100
     13 N19         5.3630   -0.7120    4.8340 nz        1 745     -0.826600
     14 C23        -0.8370   -0.0020   -1.2400 cx        1 745     -0.115400
     15 C24        -1.7860   -1.1320   -1.6200 cx        1 745     -0.046400
     16 C25        -1.8170   -1.6300   -3.0020 ca        1 745     -0.068300
     17 C26        -1.7200   -0.7660   -4.1000 ca        1 745     -0.123000
     18 C27        -1.7560   -1.2710   -5.3990 ca        1 745     -0.124000
     19 C28        -1.8880   -2.6420   -5.6150 ca        1 745     -0.119000
     20 C29        -1.9850   -3.5090   -4.5270 ca        1 745     -0.124000
     21 C30        -1.9490   -3.0070   -3.2270 ca        1 745     -0.123000
     22 C7         -2.3270    0.2240   -1.2610 cx        1 745     -0.102400
     23 H2          1.7080    0.7740   -0.8540 ha        1 745      0.153000
     24 H5         -0.4560   -0.9840    3.3070 ha        1 745      0.146000
     25 H6         -1.7330   -0.8990    1.1760 ha        1 745      0.155000
     26 H10         3.7800    1.1990    0.3920 ha        1 745      0.160000
     27 H11         5.0630    1.1350    2.5220 ha        1 745      0.132000
     28 H13         1.6260   -0.5780    4.5580 ha        1 745      0.146000
     29 H18         3.2760    1.4940    6.1120 hn        1 745      0.489400
     30 H191        5.9730   -0.6520    5.6580 hn        1 745      0.468467
     31 H192        5.0000   -1.6670    4.7460 hn        1 745      0.468467
     32 H23        -0.2500    0.4520   -2.0690 hc        1 745      0.098700
     33 H24        -1.9230   -1.9420   -0.8710 hc        1 745      0.084700
     34 H26        -1.6200    0.3180   -3.9420 ha        1 745      0.129000
     35 H27        -1.6820   -0.5830   -6.2550 ha        1 745      0.138000
     36 H28        -1.9190   -3.0390   -6.6410 ha        1 745      0.140000
     37 H29        -2.0930   -4.5910   -4.6930 ha        1 745      0.138000
     38 H30        -2.0300   -3.6980   -2.3740 ha        1 745      0.129000
     39 H71        -2.7470    0.8670   -2.0570 hc        1 745      0.084700
     40 H72        -2.8710    0.3440   -0.3060 hc        1 745      0.084700
     41 H193        5.8960   -0.4760    3.9900 hn        1 745      0.468467
@<TRIPOS>BOND
     1    1    2 ar  
     2    1    6 ar  
     3    1   14 1   
     4    2    3 ar  
     5    2   23 1   
     6    3    4 ar  
     7    3    7 ar  
     8    4    5 ar  
     9    4   10 ar  
    10    5    6 ar  
    11    5   24 1   
    12    6   25 1   
    13    7    8 ar  
    14    7   26 1   
    15    8    9 ar  
    16    8   27 1   
    17    9   10 ar  
    18    9   11 1   
    19   10   28 1   
    20   11   12 2   
    21   11   13 1   
    22   12   29 1   
    23   13   30 1   
    24   13   31 1   
    25   13   41 1   
    26   14   15 1   
    27   14   22 1   
    28   14   32 1   
    29   15   16 1   
    30   15   22 1   
    31   15   33 1   
    32   16   17 ar  
    33   16   21 ar  
    34   17   18 ar  
    35   17   34 1   
    36   18   19 ar  
    37   18   35 1   
    38   19   20 ar  
    39   19   36 1   
    40   20   21 ar  
    41   20   37 1   
    42   21   38 1   
    43   22   39 1   
    44   22   40 1   
@<TRIPOS>SUBSTRUCTURE
     1 745         1 TEMP              0 ****  ****    0 ROOT
