@<TRIPOS>MOLECULE
745
   41    44     1     0     0
SMALL
bcc


@<TRIPOS>ATOM
      1 C1         -0.0930   -0.0730    0.0360 ca        1 745      0.016700
      2 C2          1.2130    0.3850    0.0770 ca        1 745     -0.131000
      3 C3          1.9630    0.3400    1.2770 ca        1 745     -0.001000
      4 C4          1.3650   -0.1840    2.4550 ca        1 745     -0.061000
      5 C5          0.0230   -0.6500    2.3970 ca        1 745     -0.107000
      6 C6         -0.6830   -0.5950    1.2210 ca        1 745     -0.107000
      7 C10         3.3050    0.8150    1.3340 ca        1 745     -0.079000
      8 C11         4.0190    0.7610    2.5030 ca        1 745     -0.142000
      9 C12         3.4170    0.2310    3.6760 ca        1 745     -0.280900
     10 C13         2.1150   -0.2280    3.6570 ca        1 745     -0.035000
     11 C17         4.1860    0.2110    4.9330 ce        1 745      0.599800
     12 N18         4.0280    0.8120    6.0480 n2        1 745     -0.719100
     13 N19         5.3770   -0.7140    4.8320 n4        1 745     -0.826600
     14 C23        -0.8450   -0.0150   -1.2220 cx        1 745     -0.115400
     15 C24        -1.7780   -1.1530   -1.6150 cx        1 745     -0.046400
     16 C25        -1.8040   -1.6330   -3.0030 ca        1 745     -0.068300
     17 C26        -1.7220   -0.7530   -4.0900 ca        1 745     -0.123000
     18 C27        -1.7530   -1.2410   -5.3960 ca        1 745     -0.124000
     19 C28        -1.8660   -2.6110   -5.6310 ca        1 745     -0.119000
     20 C29        -1.9480   -3.4930   -4.5540 ca        1 745     -0.124000
     21 C30        -1.9170   -3.0100   -3.2480 ca        1 745     -0.123000
     22 C7         -2.3390    0.1890   -1.2370 cx        1 745     -0.102400
     23 H2          1.6890    0.7930   -0.8290 ha        1 745      0.153000
     24 H5         -0.4410   -1.0540    3.3110 ha        1 745      0.146000
     25 H6         -1.7240   -0.9580    1.1830 ha        1 745      0.155000
     26 H10         3.7560    1.2330    0.4190 ha        1 745      0.160000
     27 H11         5.0440    1.1600    2.5460 ha        1 745      0.132000
     28 H13         1.6370   -0.6320    4.5640 ha        1 745      0.146000
     29 H18         3.2580    1.4420    6.1430 hn        1 745      0.489400
     30 H191        5.9040   -0.4580    3.9900 hn        1 745      0.468467
     31 H192        5.9870   -0.6560    5.6560 hn        1 745      0.468467
     32 H23        -0.2670    0.4590   -2.0450 hc        1 745      0.098700
     33 H24        -1.9020   -1.9760   -0.8770 hc        1 745      0.084700
     34 H26        -1.6370    0.3300   -3.9170 ha        1 745      0.129000
     35 H27        -1.6910   -0.5410   -6.2420 ha        1 745      0.138000
     36 H28        -1.8930   -2.9940   -6.6620 ha        1 745      0.140000
     37 H29        -2.0410   -4.5750   -4.7350 ha        1 745      0.138000
     38 H30        -1.9860   -3.7130   -2.4040 ha        1 745      0.129000
     39 H71        -2.7690    0.8370   -2.0230 hc        1 745      0.084700
     40 H72        -2.8820    0.2870   -0.2800 hc        1 745      0.084700
     41 H193        5.0280   -1.6730    4.7310 hn        1 745      0.468467
@<TRIPOS>BOND
     1    1    2 ar  
     2    1    6 ar  
     3    1   14 1   
     4    2    3 ar  
     5    2   23 1   
     6    3    4 ar  
     7    3    7 ar  
     8    4    5 ar  
     9    4   10 ar  
    10    5    6 ar  
    11    5   24 1   
    12    6   25 1   
    13    7    8 ar  
    14    7   26 1   
    15    8    9 ar  
    16    8   27 1   
    17    9   10 ar  
    18    9   11 1   
    19   10   28 1   
    20   11   12 2   
    21   11   13 1   
    22   12   29 1   
    23   13   30 1   
    24   13   31 1   
    25   13   41 1   
    26   14   15 1   
    27   14   22 1   
    28   14   32 1   
    29   15   16 1   
    30   15   22 1   
    31   15   33 1   
    32   16   17 ar  
    33   16   21 ar  
    34   17   18 ar  
    35   17   34 1   
    36   18   19 ar  
    37   18   35 1   
    38   19   20 ar  
    39   19   36 1   
    40   20   21 ar  
    41   20   37 1   
    42   21   38 1   
    43   22   39 1   
    44   22   40 1   
@<TRIPOS>SUBSTRUCTURE
     1 745         1 TEMP              0 ****  ****    0 ROOT
