@<TRIPOS>MOLECULE
745
   41    44     1     0     0
SMALL
bcc


@<TRIPOS>ATOM
      1 C1         -0.0890   -0.0570    0.0160 ca        1 745      0.016700
      2 C2          1.2240    0.3790    0.0530 ca        1 745     -0.131000
      3 C3          1.9700    0.3400    1.2570 ca        1 745     -0.001000
      4 C4          1.3600   -0.1550    2.4410 ca        1 745     -0.061000
      5 C5          0.0110   -0.5990    2.3860 ca        1 745     -0.107000
      6 C6         -0.6910   -0.5510    1.2080 ca        1 745     -0.107000
      7 C10         3.3200    0.7930    1.3100 ca        1 745     -0.079000
      8 C11         4.0300    0.7460    2.4820 ca        1 745     -0.142000
      9 C12         3.4160    0.2440    3.6620 ca        1 745     -0.280900
     10 C13         2.1060   -0.1930    3.6460 ca        1 745     -0.035000
     11 C17         4.1810    0.2310    4.9210 ce        1 745      0.599800
     12 N18         4.0310    0.8530    6.0260 n2        1 745     -0.719100
     13 N19         5.3550   -0.7160    4.8380 n4        1 745     -0.826600
     14 C23        -0.8360   -0.0070   -1.2450 cx        1 745     -0.115400
     15 C24        -1.7860   -1.1360   -1.6230 cx        1 745     -0.046400
     16 C25        -1.8160   -1.6370   -3.0040 ca        1 745     -0.068300
     17 C26        -1.7180   -0.7750   -4.1050 ca        1 745     -0.123000
     18 C27        -1.7530   -1.2820   -5.4020 ca        1 745     -0.124000
     19 C28        -1.8850   -2.6540   -5.6160 ca        1 745     -0.119000
     20 C29        -1.9840   -3.5180   -4.5260 ca        1 745     -0.124000
     21 C30        -1.9490   -3.0150   -3.2280 ca        1 745     -0.123000
     22 C7         -2.3270    0.2200   -1.2680 cx        1 745     -0.102400
     23 H2          1.7100    0.7650   -0.8580 ha        1 745      0.153000
     24 H5         -0.4620   -0.9800    3.3050 ha        1 745      0.146000
     25 H6         -1.7370   -0.8970    1.1720 ha        1 745      0.155000
     26 H10         3.7810    1.1890    0.3900 ha        1 745      0.160000
     27 H11         5.0610    1.1270    2.5210 ha        1 745      0.132000
     28 H13         1.6190   -0.5740    4.5580 ha        1 745      0.146000
     29 H18         3.2710    1.4980    6.1090 hn        1 745      0.489400
     30 H191        5.9650   -0.6550    5.6630 hn        1 745      0.468467
     31 H192        4.9900   -1.6700    4.7530 hn        1 745      0.468467
     32 H23        -0.2480    0.4450   -2.0740 hc        1 745      0.098700
     33 H24        -1.9250   -1.9450   -0.8730 hc        1 745      0.084700
     34 H26        -1.6170    0.3090   -3.9470 ha        1 745      0.129000
     35 H27        -1.6780   -0.5960   -6.2600 ha        1 745      0.138000
     36 H28        -1.9150   -3.0520   -6.6410 ha        1 745      0.140000
     37 H29        -2.0920   -4.6010   -4.6910 ha        1 745      0.138000
     38 H30        -2.0300   -3.7040   -2.3730 ha        1 745      0.129000
     39 H71        -2.7440    0.8630   -2.0650 hc        1 745      0.084700
     40 H72        -2.8710    0.3420   -0.3140 hc        1 745      0.084700
     41 H193        5.8890   -0.4830    3.9940 hn        1 745      0.468467
@<TRIPOS>BOND
     1    1    2 ar  
     2    1    6 ar  
     3    1   14 1   
     4    2    3 ar  
     5    2   23 1   
     6    3    4 ar  
     7    3    7 ar  
     8    4    5 ar  
     9    4   10 ar  
    10    5    6 ar  
    11    5   24 1   
    12    6   25 1   
    13    7    8 ar  
    14    7   26 1   
    15    8    9 ar  
    16    8   27 1   
    17    9   10 ar  
    18    9   11 1   
    19   10   28 1   
    20   11   12 2   
    21   11   13 1   
    22   12   29 1   
    23   13   30 1   
    24   13   31 1   
    25   13   41 1   
    26   14   15 1   
    27   14   22 1   
    28   14   32 1   
    29   15   16 1   
    30   15   22 1   
    31   15   33 1   
    32   16   17 ar  
    33   16   21 ar  
    34   17   18 ar  
    35   17   34 1   
    36   18   19 ar  
    37   18   35 1   
    38   19   20 ar  
    39   19   36 1   
    40   20   21 ar  
    41   20   37 1   
    42   21   38 1   
    43   22   39 1   
    44   22   40 1   
@<TRIPOS>SUBSTRUCTURE
     1 745         1 TEMP              0 ****  ****    0 ROOT
