@<TRIPOS>MOLECULE
745
   40    43     1     0     0
SMALL
bcc


@<TRIPOS>ATOM
      1 C1         -0.5070   -0.6900    0.3860 ca        1 745     -0.037300
      2 C2          0.3300    0.1750    1.0630 ca        1 745     -0.116000
      3 C3          1.7160    0.2380    0.7610 ca        1 745     -0.024000
      4 C4          2.2450   -0.6010   -0.2520 ca        1 745     -0.046000
      5 C5          1.3680   -1.4850   -0.9400 ca        1 745     -0.112000
      6 C6          0.0330   -1.5270   -0.6300 ca        1 745     -0.125000
      7 C10         2.5900    1.1230    1.4500 ca        1 745     -0.122000
      8 C11         3.9260    1.1710    1.1400 ca        1 745     -0.101000
      9 C12         4.4540    0.3300    0.1260 ca        1 745     -0.194900
     10 C13         3.6310   -0.5400   -0.5540 ca        1 745     -0.096000
     11 C17         5.9180    0.3730   -0.1910 ce        1 745      0.638800
     12 N18         6.6860   -0.6760   -0.2320 n2        1 745     -0.836100
     13 N19         6.4330    1.6730   -0.3840 nh        1 745     -0.893800
     14 C23        -1.9370   -0.7330    0.7210 cx        1 745     -0.078400
     15 C24        -2.9800   -0.8920   -0.3750 cx        1 745     -0.070400
     16 C25        -4.2190   -0.1040   -0.3360 ca        1 745     -0.049300
     17 C26        -4.8970    0.1490    0.8630 ca        1 745     -0.126000
     18 C27        -6.0710    0.9000    0.8670 ca        1 745     -0.127000
     19 C28        -6.5820    1.4080   -0.3270 ca        1 745     -0.130000
     20 C29        -5.9130    1.1610   -1.5260 ca        1 745     -0.127000
     21 C30        -4.7390    0.4110   -1.5320 ca        1 745     -0.126000
     22 C7         -2.7310   -2.0070    0.6060 cx        1 745     -0.112400
     23 H2         -0.0650    0.8340    1.8510 ha        1 745      0.136000
     24 H5          1.7840   -2.1340   -1.7260 ha        1 745      0.135000
     25 H6         -0.6390   -2.2130   -1.1670 ha        1 745      0.134000
     26 H10         2.1730    1.7680    2.2380 ha        1 745      0.137000
     27 H11         4.6040    1.8530    1.6770 ha        1 745      0.150000
     28 H13         4.0290   -1.1990   -1.3410 ha        1 745      0.139000
     29 H18         6.2290   -1.5260    0.0210 hn        1 745      0.394400
     30 H191        7.3560    1.7150   -0.7590 hn        1 745      0.398800
     31 H192        5.7920    2.2850   -0.8360 hn        1 745      0.398800
     32 H23        -2.1990   -0.0530    1.5600 hc        1 745      0.088700
     33 H24        -2.5980   -1.0380   -1.4090 hc        1 745      0.087700
     34 H26        -4.5010   -0.2470    1.8110 ha        1 745      0.131000
     35 H27        -6.5940    1.0920    1.8150 ha        1 745      0.131500
     36 H28        -7.5080    2.0000   -0.3240 ha        1 745      0.132000
     37 H29        -6.3120    1.5600   -2.4700 ha        1 745      0.131500
     38 H30        -4.2170    0.2220   -2.4820 ha        1 745      0.131000
     39 H71        -2.2310   -2.9250    0.2470 hc        1 745      0.077200
     40 H72        -3.4900   -2.2250    1.3780 hc        1 745      0.077200
@<TRIPOS>BOND
     1    1    2 ar  
     2    1    6 ar  
     3    1   14 1   
     4    2    3 ar  
     5    2   23 1   
     6    3    4 ar  
     7    3    7 ar  
     8    4    5 ar  
     9    4   10 ar  
    10    5    6 ar  
    11    5   24 1   
    12    6   25 1   
    13    7    8 ar  
    14    7   26 1   
    15    8    9 ar  
    16    8   27 1   
    17    9   10 ar  
    18    9   11 1   
    19   10   28 1   
    20   11   12 2   
    21   11   13 1   
    22   12   29 1   
    23   13   30 1   
    24   13   31 1   
    25   14   15 1   
    26   14   22 1   
    27   14   32 1   
    28   15   16 1   
    29   15   22 1   
    30   15   33 1   
    31   16   17 ar  
    32   16   21 ar  
    33   17   18 ar  
    34   17   34 1   
    35   18   19 ar  
    36   18   35 1   
    37   19   20 ar  
    38   19   36 1   
    39   20   21 ar  
    40   20   37 1   
    41   21   38 1   
    42   22   39 1   
    43   22   40 1   
@<TRIPOS>SUBSTRUCTURE
     1 745         1 TEMP              0 ****  ****    0 ROOT
