@<TRIPOS>MOLECULE
746
   82    86     1     0     0
SMALL
bcc


@<TRIPOS>ATOM
      1 C1          1.8440    0.5510    0.2720 ca        1 746     -0.032800
      2 C2          3.2390    0.6750    0.1430 ca        1 746     -0.006300
      3 C3          3.8740    0.9490   -1.1680 c3        1 746     -0.097800
      4 C4          4.0250    0.5400    1.3120 ca        1 746     -0.049400
      5 C5          3.4320    0.3120    2.5680 ca        1 746     -0.081000
      6 C7          2.0490    0.2150    2.6650 ca        1 746     -0.106000
      7 C9          1.2570    0.3340    1.5240 ca        1 746     -0.050000
      8 C11         0.9480    0.6470   -0.8970 cc        1 746      0.017400
      9 N12         0.1500    1.7560   -1.0200 nc        1 746     -0.424300
     10 C13        -0.7050    1.7780   -2.0350 cd        1 746      0.324200
     11 C14        -0.8470    0.6960   -3.0550 c         1 746      0.581200
     12 O15        -1.6640    0.7430   -3.9870 o         1 746     -0.574500
     13 N16         0.0180   -0.4090   -2.8640 n         1 746     -0.278000
     14 C17         0.8830   -0.4200   -1.8130 cd        1 746      0.065600
     15 N19         5.4850    0.6470    1.2430 n4        1 746     -0.556200
     16 C21         6.1610   -0.7260    1.0640 c         1 746      0.595700
     17 O22         5.9150   -1.2730    0.0000 o         1 746     -0.436100
     18 C23         6.9840   -1.1820    2.1740 ca        1 746     -0.229600
     19 C24         7.0790   -2.5730    2.3690 ca        1 746     -0.063000
     20 C26         7.8720   -3.0780    3.3910 ca        1 746     -0.130500
     21 C28         8.6040   -2.2230    4.2330 ca        1 746      0.041700
     22 C29         8.5170   -0.8370    4.0150 ca        1 746     -0.130500
     23 C31         7.7210   -0.3190    3.0020 ca        1 746     -0.063000
     24 C33         9.4590   -2.8140    5.3230 c3        1 746     -0.030700
     25 C34        10.5110   -3.7250    4.6930 c3        1 746     -0.093433
     26 C38        10.1750   -1.7480    6.1430 c3        1 746     -0.093433
     27 C42         8.5760   -3.6320    6.2630 c3        1 746     -0.093433
     28 C46        -1.0230    3.9990   -3.0440 ca        1 746     -0.053400
     29 N47        -1.6090    2.9320   -2.2200 n4        1 746     -0.554400
     30 C48        -1.2730    4.0150   -4.4270 ca        1 746     -0.103500
     31 C49        -0.7890    5.0760   -5.1900 ca        1 746     -0.077500
     32 C50        -0.0560    6.1020   -4.5870 ca        1 746     -0.069600
     33 C51         0.2050    6.0660   -3.2110 ca        1 746     -0.077500
     34 C52        -0.2690    5.0150   -2.4310 ca        1 746     -0.103500
     35 C60        -0.0300   -1.5130   -3.8070 c3        1 746      0.038300
     36 C71         0.3660    7.3260   -5.3490 c         1 746      0.648700
     37 O72         0.1060    8.4420   -4.8590 o         1 746     -0.560100
     38 C81         3.1470    6.2100   -7.2280 c3        1 746      0.102400
     39 C82         1.6390    5.9900   -7.0150 c3        1 746      0.043000
     40 N83         0.9410    7.1870   -6.6000 n         1 746     -0.445800
     41 C84         1.3020    8.3740   -7.3600 c3        1 746      0.043000
     42 C85         2.8130    8.5270   -7.5680 c3        1 746      0.102400
     43 O86         3.3980    7.3270   -8.0660 os        1 746     -0.393600
     44 H3          3.1170    0.9800   -1.9900 hc        1 746      0.073033
     45 H3A         4.6210    0.1520   -1.4240 hc        1 746      0.073033
     46 H3B         4.3900    1.9440   -1.1560 hc        1 746      0.073033
     47 H5          4.0450    0.2090    3.4810 ha        1 746      0.168000
     48 H7          1.5790    0.0430    3.6500 ha        1 746      0.182000
     49 H9          0.1600    0.2570    1.6120 ha        1 746      0.169000
     50 H17         1.5380   -1.3090   -1.6990 h4        1 746      0.203000
     51 HN19        5.8220    1.0830    2.1100 hn        1 746      0.460800
     52 H24         6.5260   -3.2600    1.7060 ha        1 746      0.144500
     53 H26         7.9340   -4.1710    3.5340 ha        1 746      0.173500
     54 H29         9.0940   -0.1370    4.6440 ha        1 746      0.173500
     55 H31         7.7240    0.7710    2.8450 ha        1 746      0.144500
     56 H34        11.1620   -3.1470    3.9960 hc        1 746      0.050256
     57 H34A       11.1510   -4.1650    5.4960 hc        1 746      0.050256
     58 H34B       10.0280   -4.5600    4.1300 hc        1 746      0.050256
     59 H38         9.4430   -1.0670    6.6380 hc        1 746      0.050256
     60 H38A       10.8640   -1.1490    5.5000 hc        1 746      0.050256
     61 H38B       10.7860   -2.2410    6.9390 hc        1 746      0.050256
     62 H42         7.7990   -2.9830    6.7340 hc        1 746      0.050256
     63 H42A        8.0720   -4.4630    5.7150 hc        1 746      0.050256
     64 H42B        9.2060   -4.0750    7.0730 hc        1 746      0.050256
     65 HN47       -2.4570    2.5760   -2.6970 hn        1 746      0.480800
     66 H48        -1.8490    3.2080   -4.9160 ha        1 746      0.168000
     67 H49        -1.0040    5.1080   -6.2740 ha        1 746      0.185500
     68 H51         0.7620    6.8970   -2.7410 ha        1 746      0.185500
     69 H52        -0.0630    5.0060   -1.3480 ha        1 746      0.168000
     70 H60         0.7170   -1.3340   -4.6280 h1        1 746      0.095700
     71 H60A        0.2050   -2.4750   -3.2800 h1        1 746      0.095700
     72 H60B       -1.0600   -1.5720   -4.2560 h1        1 746      0.095700
     73 H82         1.1850    5.6620   -7.9950 h1        1 746      0.073700
     74 H82A        1.5010    5.1650   -6.2640 h1        1 746      0.073700
     75 H84         0.8010    8.2780   -8.3660 h1        1 746      0.073700
     76 H84A        0.9060    9.2960   -6.8460 h1        1 746      0.073700
     77 H85         3.3240    8.8270   -6.6150 h1        1 746      0.064200
     78 H85A        3.0160    9.2860   -8.3700 h1        1 746      0.064200
     79 H81         3.5860    5.3390   -7.7810 h1        1 746      0.064200
     80 H192        5.7400    1.2450    0.4470 hn        1 746      0.460800
     81 H472       -1.8690    3.3250   -1.3040 hn        1 746      0.480800
     82 H81A        3.6700    6.3470   -6.2450 h1        1 746      0.064200
@<TRIPOS>BOND
     1    1    2 ar  
     2    1    7 ar  
     3    1    8 1   
     4    2    3 1   
     5    2    4 ar  
     6    3   44 1   
     7    3   45 1   
     8    3   46 1   
     9    4    5 ar  
    10    4   15 1   
    11    5    6 ar  
    12    5   47 1   
    13    6    7 ar  
    14    6   48 1   
    15    7   49 1   
    16    8    9 1   
    17    8   14 2   
    18    9   10 2   
    19   10   11 1   
    20   10   29 1   
    21   11   12 2   
    22   11   13 1   
    23   13   14 1   
    24   13   35 1   
    25   14   50 1   
    26   15   16 1   
    27   15   51 1   
    28   15   80 1   
    29   16   17 2   
    30   16   18 1   
    31   18   19 ar  
    32   18   23 ar  
    33   19   20 ar  
    34   19   52 1   
    35   20   21 ar  
    36   20   53 1   
    37   21   22 ar  
    38   21   24 1   
    39   22   23 ar  
    40   22   54 1   
    41   23   55 1   
    42   24   25 1   
    43   24   26 1   
    44   24   27 1   
    45   25   56 1   
    46   25   57 1   
    47   25   58 1   
    48   26   59 1   
    49   26   60 1   
    50   26   61 1   
    51   27   62 1   
    52   27   63 1   
    53   27   64 1   
    54   28   29 1   
    55   28   30 ar  
    56   28   34 ar  
    57   29   65 1   
    58   29   81 1   
    59   30   31 ar  
    60   30   66 1   
    61   31   32 ar  
    62   31   67 1   
    63   32   33 ar  
    64   32   36 1   
    65   33   34 ar  
    66   33   68 1   
    67   34   69 1   
    68   35   70 1   
    69   35   71 1   
    70   35   72 1   
    71   36   37 2   
    72   36   40 1   
    73   38   39 1   
    74   38   43 1   
    75   38   79 1   
    76   38   82 1   
    77   39   40 1   
    78   39   73 1   
    79   39   74 1   
    80   40   41 1   
    81   41   42 1   
    82   41   75 1   
    83   41   76 1   
    84   42   43 1   
    85   42   77 1   
    86   42   78 1   
@<TRIPOS>SUBSTRUCTURE
     1 746         1 TEMP              0 ****  ****    0 ROOT
