@<TRIPOS>MOLECULE
746
   80    84     1     0     0
SMALL
bcc


@<TRIPOS>ATOM
      1 C1         -1.3180   -2.9130    0.8500 ca        1 746     -0.011800
      2 C2         -0.0630   -2.5080    0.3760 ca        1 746     -0.095300
      3 C3          0.0820   -1.9090   -0.9740 c3        1 746     -0.054800
      4 C4          1.0770   -2.6770    1.2140 ca        1 746      0.062600
      5 C5          0.9170   -3.2610    2.4880 ca        1 746     -0.137000
      6 C7         -0.3410   -3.6590    2.9260 ca        1 746     -0.114000
      7 C9         -1.4600   -3.4820    2.1200 ca        1 746     -0.134000
      8 C11        -2.5350   -2.7570    0.0280 cc        1 746      0.098400
      9 N12        -3.1680   -1.5190    0.0320 nc        1 746     -0.566300
     10 C13        -4.2850   -1.3990   -0.6720 cd        1 746      0.567200
     11 C14        -4.8590   -2.5320   -1.5130 c         1 746      0.555200
     12 O15        -5.8670   -2.4000   -2.2360 o         1 746     -0.637500
     13 N16        -4.1680   -3.7450   -1.4470 n         1 746     -0.326000
     14 C17        -3.0190   -3.8430   -0.6760 cd        1 746     -0.069400
     15 N19         2.3320   -2.2270    0.7680 n         1 746     -0.473100
     16 C21         3.5730   -2.6820    1.1980 c         1 746      0.680700
     17 O22         3.7060   -3.5680    2.0620 o         1 746     -0.584100
     18 C23         4.7590   -2.0530    0.5440 ca        1 746     -0.154600
     19 C24         5.8470   -2.8710    0.2180 ca        1 746     -0.090500
     20 C26         6.9760   -2.3210   -0.3790 ca        1 746     -0.137500
     21 C28         7.0510   -0.9460   -0.6530 ca        1 746     -0.038300
     22 C29         5.9630   -0.1360   -0.3080 ca        1 746     -0.137500
     23 C31         4.8240   -0.6820    0.2840 ca        1 746     -0.090500
     24 C33         8.2940   -0.3920   -1.2980 c3        1 746     -0.014700
     25 C34         8.5070   -1.0710   -2.6490 c3        1 746     -0.087100
     26 C38         8.2100    1.1110   -1.5290 c3        1 746     -0.087100
     27 C42         9.4960   -0.6700   -0.3990 c3        1 746     -0.087100
     28 C46        -4.6390    1.0150   -0.2170 ca        1 746      0.164600
     29 N47        -5.0760   -0.2420   -0.6750 nh        1 746     -0.678600
     30 C48        -4.9330    2.1640   -0.9920 ca        1 746     -0.159000
     31 C49        -4.5810    3.4290   -0.5380 ca        1 746     -0.075500
     32 C50        -3.9290    3.5830    0.6890 ca        1 746     -0.158600
     33 C51        -3.6540    2.4570    1.4700 ca        1 746     -0.075500
     34 C52        -3.9990    1.1840    1.0290 ca        1 746     -0.159000
     35 C60        -4.6300   -4.9020   -2.1730 c3        1 746      0.063300
     36 C71        -3.5870    4.9300    1.2240 c         1 746      0.670700
     37 O72        -3.9580    5.2760    2.3640 o         1 746     -0.593100
     38 C81        -0.5840    5.6190   -0.4840 c3        1 746      0.101400
     39 C82        -2.0890    5.3970   -0.7080 c3        1 746      0.047000
     40 N83        -2.9040    5.8310    0.4040 n         1 746     -0.458800
     41 C84        -2.5370    7.1350    0.9210 c3        1 746      0.047000
     42 C85        -1.0250    7.3170    1.1040 c3        1 746      0.101400
     43 O86        -0.3030    6.9490   -0.0670 os        1 746     -0.412600
     44 H3          0.3690   -0.8300   -0.8930 hc        1 746      0.045700
     45 H3A         0.8640   -2.4470   -1.5670 hc        1 746      0.045700
     46 H3B        -0.8730   -1.9630   -1.5520 hc        1 746      0.045700
     47 H5          1.7910   -3.4120    3.1450 ha        1 746      0.170000
     48 H7         -0.4480   -4.1110    3.9240 ha        1 746      0.138000
     49 H9         -2.4550   -3.7830    2.4770 ha        1 746      0.138000
     50 H17        -2.5190   -4.8260   -0.6600 h4        1 746      0.171000
     51 HN19        2.3230   -1.5880    0.0040 hn        1 746      0.321500
     52 H24         5.8030   -3.9470    0.4490 ha        1 746      0.145000
     53 H26         7.8240   -2.9770   -0.6320 ha        1 746      0.140500
     54 H29         5.9860    0.9490   -0.4950 ha        1 746      0.140500
     55 H31         3.9930   -0.0170    0.5620 ha        1 746      0.145000
     56 H34         7.6350   -0.8820   -3.3190 hc        1 746      0.039033
     57 H34A        9.4270   -0.6660   -3.1350 hc        1 746      0.039033
     58 H34B        8.6290   -2.1730   -2.5220 hc        1 746      0.039033
     59 H38         8.0860    1.6530   -0.5610 hc        1 746      0.039033
     60 H38A        9.1520    1.4690   -2.0130 hc        1 746      0.039033
     61 H38B        7.3540    1.3600   -2.2010 hc        1 746      0.039033
     62 H42         9.6310   -1.7680   -0.2490 hc        1 746      0.039033
     63 H42A       10.4230   -0.2590   -0.8670 hc        1 746      0.039033
     64 H42B        9.3530   -0.1880    0.5980 hc        1 746      0.039033
     65 HN47       -5.7430   -0.2170   -1.4240 hn        1 746      0.452800
     66 H48        -5.4510    2.0680   -1.9580 ha        1 746      0.152000
     67 H49        -4.8230    4.3130   -1.1480 ha        1 746      0.148000
     68 H51        -3.1740    2.5830    2.4540 ha        1 746      0.148000
     69 H52        -3.7750    0.3190    1.6740 ha        1 746      0.152000
     70 H60        -5.5820   -4.6540   -2.7150 h1        1 746      0.063367
     71 H60A       -3.8520   -5.2170   -2.9190 h1        1 746      0.063367
     72 H60B       -4.8190   -5.7460   -1.4590 h1        1 746      0.063367
     73 H81A       -0.0320    5.5070   -1.4540 h1        1 746      0.056200
     74 H82        -2.4070    5.9950   -1.6100 h1        1 746      0.069200
     75 H82A       -2.2600    4.3070   -0.9270 h1        1 746      0.069200
     76 H84        -2.9060    7.9000    0.1790 h1        1 746      0.069200
     77 H84A       -3.0490    7.3140    1.9080 h1        1 746      0.069200
     78 H85        -0.7820    8.4020    1.2500 h1        1 746      0.056200
     79 H85A       -0.6520    6.7190    1.9770 h1        1 746      0.056200
     80 H81        -0.1830    4.8950    0.2730 h1        1 746      0.056200
@<TRIPOS>BOND
     1    1    2 ar  
     2    1    7 ar  
     3    1    8 1   
     4    2    3 1   
     5    2    4 ar  
     6    3   44 1   
     7    3   45 1   
     8    3   46 1   
     9    4    5 ar  
    10    4   15 1   
    11    5    6 ar  
    12    5   47 1   
    13    6    7 ar  
    14    6   48 1   
    15    7   49 1   
    16    8    9 1   
    17    8   14 2   
    18    9   10 2   
    19   10   11 1   
    20   10   29 1   
    21   11   12 2   
    22   11   13 1   
    23   13   14 1   
    24   13   35 1   
    25   14   50 1   
    26   15   16 1   
    27   15   51 1   
    28   16   17 2   
    29   16   18 1   
    30   18   19 ar  
    31   18   23 ar  
    32   19   20 ar  
    33   19   52 1   
    34   20   21 ar  
    35   20   53 1   
    36   21   22 ar  
    37   21   24 1   
    38   22   23 ar  
    39   22   54 1   
    40   23   55 1   
    41   24   25 1   
    42   24   26 1   
    43   24   27 1   
    44   25   56 1   
    45   25   57 1   
    46   25   58 1   
    47   26   59 1   
    48   26   60 1   
    49   26   61 1   
    50   27   62 1   
    51   27   63 1   
    52   27   64 1   
    53   28   29 1   
    54   28   30 ar  
    55   28   34 ar  
    56   29   65 1   
    57   30   31 ar  
    58   30   66 1   
    59   31   32 ar  
    60   31   67 1   
    61   32   33 ar  
    62   32   36 1   
    63   33   34 ar  
    64   33   68 1   
    65   34   69 1   
    66   35   70 1   
    67   35   71 1   
    68   35   72 1   
    69   36   37 2   
    70   36   40 1   
    71   38   39 1   
    72   38   43 1   
    73   38   73 1   
    74   38   80 1   
    75   39   40 1   
    76   39   74 1   
    77   39   75 1   
    78   40   41 1   
    79   41   42 1   
    80   41   76 1   
    81   41   77 1   
    82   42   43 1   
    83   42   78 1   
    84   42   79 1   
@<TRIPOS>SUBSTRUCTURE
     1 746         1 TEMP              0 ****  ****    0 ROOT
