@<TRIPOS>MOLECULE
746
   80    84     1     0     0
SMALL
bcc


@<TRIPOS>ATOM
      1 C1          0.2370    0.1010    0.1560 ca        1 746     -0.011800
      2 C2          1.6120   -0.1200    0.3070 ca        1 746     -0.095300
      3 C3          2.4590   -0.4620   -0.8620 c3        1 746     -0.054800
      4 C4          2.1900   -0.0080    1.6050 ca        1 746      0.062600
      5 C5          1.3630    0.3040    2.7040 ca        1 746     -0.137000
      6 C7         -0.0010    0.5090    2.5220 ca        1 746     -0.114000
      7 C9         -0.5670    0.4180    1.2560 ca        1 746     -0.134000
      8 C11        -0.4150    0.0060   -1.1670 cc        1 746      0.098400
      9 N12        -0.3510    1.1140   -2.0040 nc        1 746     -0.566300
     10 C13        -0.9760    1.0380   -3.1710 cd        1 746      0.567200
     11 C14        -1.7040   -0.2160   -3.6390 c         1 746      0.555200
     12 O15        -2.2280   -0.3170   -4.7660 o         1 746     -0.637500
     13 N16        -1.7320   -1.2760   -2.7290 n         1 746     -0.326000
     14 C17        -1.0920   -1.1500   -1.5050 cd        1 746     -0.069400
     15 N19         3.5770   -0.1760    1.7580 ns        1 746     -0.473100
     16 C21         4.2400   -0.5480    2.9220 c         1 746      0.680700
     17 O22         3.6500   -0.7730    3.9940 o         1 746     -0.584100
     18 C23         5.7230   -0.6790    2.8110 ca        1 746     -0.154600
     19 C24         6.3450   -1.7420    3.4780 ca        1 746     -0.090500
     20 C26         7.7260   -1.8910    3.4120 ca        1 746     -0.137500
     21 C28         8.5170   -0.9810    2.6910 ca        1 746     -0.038300
     22 C29         7.8850    0.0850    2.0420 ca        1 746     -0.137500
     23 C31         6.5000    0.2370    2.0990 ca        1 746     -0.090500
     24 C33        10.0100   -1.1800    2.6480 c3        1 746     -0.014700
     25 C34        10.3200   -2.5410    2.0310 c3        1 746     -0.087100
     26 C38        10.7160   -0.1110    1.8240 c3        1 746     -0.087100
     27 C42        10.5660   -1.1320    4.0690 c3        1 746     -0.087100
     28 C46        -0.2760    3.2680   -4.0030 ca        1 746      0.163600
     29 N47        -1.0770    2.1120   -4.0640 nu        1 746     -0.678600
     30 C48         0.2810    3.7780   -5.2020 ca        1 746     -0.159000
     31 C49         1.0160    4.9560   -5.1920 ca        1 746     -0.075500
     32 C50         1.2190    5.6520   -3.9970 ca        1 746     -0.158600
     33 C51         0.6550    5.1690   -2.8130 ca        1 746     -0.075500
     34 C52        -0.0840    3.9900   -2.8060 ca        1 746     -0.159000
     35 C60        -2.4160   -2.5050   -3.0430 c3        1 746      0.063300
     36 C71         1.9590    6.9440   -3.9660 c         1 746      0.670700
     37 O72         1.4440    7.9610   -3.4600 o         1 746     -0.593100
     38 C81         5.3010    5.8330   -3.9090 c3        1 746      0.101400
     39 C82         4.0400    5.8550   -4.7870 c3        1 746      0.047000
     40 N83         3.2130    7.0210   -4.5750 n         1 746     -0.458800
     41 C84         3.9590    8.2630   -4.5260 c3        1 746      0.047000
     42 C85         5.2210    8.1850   -3.6560 c3        1 746      0.101400
     43 O86         6.0230    7.0550   -3.9890 os        1 746     -0.412600
     44 H3          1.8430   -0.6400   -1.7780 hc        1 746      0.045700
     45 H3A         3.1680    0.3740   -1.0890 hc        1 746      0.045700
     46 H3B         3.0500   -1.3920   -0.6680 hc        1 746      0.045700
     47 H5          1.7890    0.3800    3.7180 ha        1 746      0.170000
     48 H7         -0.6310    0.7530    3.3910 ha        1 746      0.138000
     49 H9         -1.6430    0.5980    1.1140 ha        1 746      0.138000
     50 H17        -1.1510   -2.0180   -0.8260 h4        1 746      0.171000
     51 HN19        4.1210   -0.1130    0.9260 hn        1 746      0.321500
     52 H24         5.7320   -2.4470    4.0610 ha        1 746      0.145000
     53 H26         8.2020   -2.7330    3.9380 ha        1 746      0.140500
     54 H29         8.4700    0.8270    1.4770 ha        1 746      0.140500
     55 H31         6.0340    1.0970    1.5940 ha        1 746      0.145000
     56 H34         9.8670   -3.3620    2.6350 hc        1 746      0.039033
     57 H34A        9.9160   -2.5960    0.9920 hc        1 746      0.039033
     58 H34B       11.4250   -2.6970    1.9940 hc        1 746      0.039033
     59 H38        10.3540   -0.1230    0.7680 hc        1 746      0.039033
     60 H38A       11.8160   -0.3070    1.8190 hc        1 746      0.039033
     61 H38B       10.5420    0.9020    2.2590 hc        1 746      0.039033
     62 H42        10.3400   -0.1460    4.5400 hc        1 746      0.039033
     63 H42A       11.6740   -1.2740    4.0470 hc        1 746      0.039033
     64 H42B       10.1180   -1.9390    4.6960 hc        1 746      0.039033
     65 HN47       -1.3640    1.8380   -4.9860 hn        1 746      0.452800
     66 H48         0.1300    3.2500   -6.1560 ha        1 746      0.152000
     67 H49         1.4380    5.3430   -6.1330 ha        1 746      0.148000
     68 H51         0.7830    5.7390   -1.8780 ha        1 746      0.148000
     69 H52        -0.5210    3.6430   -1.8570 ha        1 746      0.152000
     70 H60        -3.2040   -2.7080   -2.2700 h1        1 746      0.063367
     71 H60A       -2.9000   -2.4220   -4.0530 h1        1 746      0.063367
     72 H60B       -1.6820   -3.3550   -3.0540 h1        1 746      0.063367
     73 H81A        6.0190    5.0590   -4.2870 h1        1 746      0.056200
     74 H82         4.3610    5.8640   -5.8700 h1        1 746      0.069200
     75 H82A        3.4570    4.9120   -4.5990 h1        1 746      0.069200
     76 H84         4.2650    8.5070   -5.5840 h1        1 746      0.069200
     77 H84A        3.3010    9.0910   -4.1410 h1        1 746      0.069200
     78 H85         5.8850    9.0650   -3.8600 h1        1 746      0.056200
     79 H85A        4.9550    8.1460   -2.5670 h1        1 746      0.056200
     80 H81         5.0370    5.6230   -2.8380 h1        1 746      0.056200
@<TRIPOS>BOND
     1    1    2 ar  
     2    1    7 ar  
     3    1    8 1   
     4    2    3 1   
     5    2    4 ar  
     6    3   44 1   
     7    3   45 1   
     8    3   46 1   
     9    4    5 ar  
    10    4   15 1   
    11    5    6 ar  
    12    5   47 1   
    13    6    7 ar  
    14    6   48 1   
    15    7   49 1   
    16    8    9 1   
    17    8   14 2   
    18    9   10 2   
    19   10   11 1   
    20   10   29 1   
    21   11   12 2   
    22   11   13 1   
    23   13   14 1   
    24   13   35 1   
    25   14   50 1   
    26   15   16 1   
    27   15   51 1   
    28   16   17 2   
    29   16   18 1   
    30   18   19 ar  
    31   18   23 ar  
    32   19   20 ar  
    33   19   52 1   
    34   20   21 ar  
    35   20   53 1   
    36   21   22 ar  
    37   21   24 1   
    38   22   23 ar  
    39   22   54 1   
    40   23   55 1   
    41   24   25 1   
    42   24   26 1   
    43   24   27 1   
    44   25   56 1   
    45   25   57 1   
    46   25   58 1   
    47   26   59 1   
    48   26   60 1   
    49   26   61 1   
    50   27   62 1   
    51   27   63 1   
    52   27   64 1   
    53   28   29 1   
    54   28   30 ar  
    55   28   34 ar  
    56   29   65 1   
    57   30   31 ar  
    58   30   66 1   
    59   31   32 ar  
    60   31   67 1   
    61   32   33 ar  
    62   32   36 1   
    63   33   34 ar  
    64   33   68 1   
    65   34   69 1   
    66   35   70 1   
    67   35   71 1   
    68   35   72 1   
    69   36   37 2   
    70   36   40 1   
    71   38   39 1   
    72   38   43 1   
    73   38   73 1   
    74   38   80 1   
    75   39   40 1   
    76   39   74 1   
    77   39   75 1   
    78   40   41 1   
    79   41   42 1   
    80   41   76 1   
    81   41   77 1   
    82   42   43 1   
    83   42   78 1   
    84   42   79 1   
@<TRIPOS>SUBSTRUCTURE
     1 746         1 TEMP              0 ****  ****    0 ROOT
