@<TRIPOS>MOLECULE
746
   80    75     1     0     0
SMALL
bcc


@<TRIPOS>ATOM
      1 C1         -1.9830    1.1950    2.6640 c1        1 746      0.000000
      2 C2         -0.5980    1.0470    2.6340 c1        1 746     -0.088000
      3 C3          0.1400    1.0870    1.3070 c3        1 746     -0.180000
      4 C4          0.1200    0.9560    3.8280 c1        1 746      0.072000
      5 C5         -0.5450    1.0120    5.0440 c2        1 746     -0.137000
      6 C7         -1.9310    1.1600    5.0740 c1        1 746     -0.114000
      7 C9         -2.6490    1.2520    3.8820 c1        1 746     -0.135000
      8 C11        -2.7930    1.2540    1.3270 c2        1 746     -0.095000
      9 N12        -3.3940    0.0730    0.8040 n2        1 746     -0.091000
     10 C13        -4.0330    0.1030   -0.4780 c1        1 746     -0.002000
     11 C14        -4.0290    1.3820   -1.2960 c1        1 746      0.300000
     12 O15        -4.5400    1.4000   -2.3950 o         1 746     -0.317000
     13 N16        -3.4710    2.5740   -0.7510 n3        1 746     -0.231000
     14 C17        -2.8960    2.5600    0.5590 c2        1 746     -0.022000
     15 N19         1.5570    0.8840    3.7970 n2        1 746     -0.328000
     16 C21         2.2830    0.4450    4.9640 c2        1 746      0.355000
     17 O22         1.6830    0.1380    5.9690 o         1 746     -0.345000
     18 C23         3.8170    0.4720    4.9660 c2        1 746     -0.134000
     19 C24         4.4910    1.5510    5.5200 c2        1 746     -0.076000
     20 C26         5.8830    1.6040    5.4700 c1        1 746     -0.136000
     21 C28         6.5970    0.5760    4.8650 c1        1 746     -0.031000
     22 C29         5.9230   -0.5040    4.3100 c1        1 746     -0.138000
     23 C31         4.5310   -0.5570    4.3610 c1        1 746     -0.104000
     24 C33         8.1450    0.5920    4.8870 c3        1 746     -0.022000
     25 C34         8.6710    0.9530    3.4980 c3        1 746     -0.205000
     26 C38         8.6300    1.6270    5.9000 c3        1 746     -0.205000
     27 C42         8.6600   -0.7830    5.2820 c3        1 746     -0.205000
     28 C46        -4.5000   -1.6110   -2.2210 c1        1 746      0.079000
     29 N47        -4.7800   -1.0430   -0.9370 n2        1 746     -0.204000
     30 C48        -5.0000   -1.0090   -3.3680 c2        1 746     -0.166000
     31 C49        -4.8280   -1.6190   -4.6070 c1        1 746     -0.071000
     32 C50        -4.1580   -2.8260   -4.6970 c1        1 746     -0.150000
     33 C51        -3.6570   -3.4290   -3.5470 c1        1 746     -0.056000
     34 C52        -3.8300   -2.8190   -2.3100 c1        1 746     -0.187000
     35 C60        -3.3930    3.7700   -1.5610 c3        1 746     -0.098000
     36 C71        -3.8010   -3.4080   -6.0870 c2        1 746      0.346000
     37 O72        -3.2150   -4.4640   -6.1670 o         1 746     -0.356000
     38 C81        -3.3960   -2.2360   -9.5110 c3        1 746     -0.049000
     39 C82        -4.0380   -3.2500   -8.5870 c3        1 746     -0.068500
     40 N83        -4.2500   -2.7330   -7.2960 n         1 746     -0.318000
     41 C84        -4.9370   -1.5060   -7.2800 c3        1 746     -0.068500
     42 C85        -4.2990   -0.4830   -8.1970 c3        1 746     -0.049000
     43 O86        -4.0920   -0.9920   -9.5140 os        1 746     -0.270000
     44 H3          0.4970    1.9850    1.1590 hc        1 746      0.085333
     45 H3A         0.8780    0.4400    1.3240 hc        1 746      0.085333
     46 H3B        -0.4760    0.8590    0.5850 hc        1 746      0.085333
     47 H5         -0.0450    0.9490    5.8730 ha        1 746      0.170000
     48 H7         -2.4020    1.2000    5.9350 ha        1 746      0.138000
     49 H9         -3.6190    1.3550    3.9030 ha        1 746      0.137000
     50 H17        -2.5150    3.3740    0.9310 h4        1 746      0.172000
     51 HN19        2.0070    1.1410    3.0570 hn        1 746      0.235000
     52 H24         3.9900    2.2740    5.9450 ha        1 746      0.154000
     53 H26         6.3550    2.3600    5.8580 ha        1 746      0.143000
     54 H29         6.4240   -1.2270    3.8850 ha        1 746      0.138000
     55 H31         4.0600   -1.3110    3.9740 ha        1 746      0.136000
     56 H34         8.5680    0.1790    2.8970 hc        1 746      0.078444
     57 H34A        8.1650    1.7080    3.1450 hc        1 746      0.078444
     58 H34B        9.6170    1.1950    3.5610 hc        1 746      0.078444
     59 H38         8.2080    1.4550    6.7730 hc        1 746      0.078444
     60 H38A        9.6130    1.5620    5.9910 hc        1 746      0.078444
     61 H38B        8.3890    2.5260    5.5910 hc        1 746      0.078444
     62 H42         8.0930   -1.1520    5.9920 hc        1 746      0.078444
     63 H42A        9.5850   -0.7050    5.6080 hc        1 746      0.078444
     64 H42B        8.6370   -1.3750    4.5060 hc        1 746      0.078444
     65 HN47       -5.3560   -1.4520   -0.3840 hn        1 746      0.212000
     66 H48        -5.4680   -0.1650   -3.3060 ha        1 746      0.149000
     67 H49        -5.1750   -1.2010   -5.4020 ha        1 746      0.144000
     68 H51        -3.1860   -4.2780   -3.6090 ha        1 746      0.150000
     69 H52        -3.4790   -3.2420   -1.5040 ha        1 746      0.139000
     70 H60        -4.2950    4.1280   -1.7030 h1        1 746      0.104333
     71 H60A       -2.8430    4.4400   -1.1020 h1        1 746      0.104333
     72 H60B       -2.9840    3.5510   -2.4330 h1        1 746      0.104333
     73 H81        -2.4740   -2.0820   -9.2210 h1        1 746      0.095250
     74 H81A       -3.3880   -2.5980  -10.4230 h1        1 746      0.095250
     75 H82        -3.4530   -4.0380   -8.5230 h1        1 746      0.108000
     76 H82A       -4.8980   -3.5230   -8.9640 h1        1 746      0.108000
     77 H84        -4.9390   -1.1600   -6.3810 h1        1 746      0.108000
     78 H84A       -5.8580   -1.6550   -7.5650 h1        1 746      0.108000
     79 H85        -4.8830    0.3060   -8.2480 h1        1 746      0.095250
     80 H85A       -3.4400   -0.2170   -7.8230 h1        1 746      0.095250
@<TRIPOS>BOND
     1    1    7 1   
     2    1    8 1   
     3    2    3 1   
     4    2    4 1   
     5    3   44 1   
     6    3   45 1   
     7    3   46 1   
     8    4    5 1   
     9    5    6 1   
    10    5   47 1   
    11    6   48 1   
    12    7   49 1   
    13    8    9 1   
    14    8   14 1   
    15    9   10 1   
    16   10   29 1   
    17   11   12 1   
    18   11   13 1   
    19   13   14 1   
    20   13   35 1   
    21   14   50 1   
    22   15   16 1   
    23   15   51 1   
    24   16   17 1   
    25   16   18 1   
    26   18   19 1   
    27   18   23 1   
    28   19   20 1   
    29   19   52 1   
    30   20   53 1   
    31   21   22 1   
    32   21   24 1   
    33   22   54 1   
    34   23   55 1   
    35   24   25 1   
    36   24   26 1   
    37   24   27 1   
    38   25   56 1   
    39   25   57 1   
    40   25   58 1   
    41   26   59 1   
    42   26   60 1   
    43   26   61 1   
    44   27   62 1   
    45   27   63 1   
    46   27   64 1   
    47   28   30 1   
    48   28   34 1   
    49   29   65 1   
    50   30   31 1   
    51   30   66 1   
    52   31   67 1   
    53   32   33 1   
    54   32   36 1   
    55   33   68 1   
    56   34   69 1   
    57   35   70 1   
    58   35   71 1   
    59   35   72 1   
    60   36   37 1   
    61   36   40 1   
    62   38   39 1   
    63   38   43 1   
    64   38   73 1   
    65   38   74 1   
    66   39   40 1   
    67   39   75 1   
    68   39   76 1   
    69   40   41 1   
    70   41   42 1   
    71   41   77 1   
    72   41   78 1   
    73   42   43 1   
    74   42   79 1   
    75   42   80 1   
@<TRIPOS>SUBSTRUCTURE
     1 746         1 TEMP              0 ****  ****    0 ROOT
