@<TRIPOS>MOLECULE
746
   80    84     1     0     0
SMALL
bcc


@<TRIPOS>ATOM
      1 C1          0.2180    0.0910    0.1490 ca        1 746     -0.011800
      2 C2          1.5940   -0.1230    0.3030 ca        1 746     -0.094300
      3 C3          2.4450   -0.4570   -0.8650 c3        1 746     -0.054800
      4 C4          2.1670   -0.0130    1.6030 ca        1 746      0.062600
      5 C5          1.3350    0.2880    2.7010 ca        1 746     -0.138000
      6 C7         -0.0290    0.4860    2.5160 ca        1 746     -0.114000
      7 C9         -0.5920    0.3980    1.2480 ca        1 746     -0.134000
      8 C11        -0.4300   -0.0000   -1.1760 cc        1 746      0.098400
      9 N12        -0.3570    1.1070   -2.0130 nc        1 746     -0.566300
     10 C13        -0.9790    1.0350   -3.1820 cd        1 746      0.567200
     11 C14        -1.7120   -0.2150   -3.6520 c         1 746      0.555200
     12 O15        -2.2340   -0.3120   -4.7810 o         1 746     -0.637500
     13 N16        -1.7490   -1.2740   -2.7430 n         1 746     -0.326000
     14 C17        -1.1120   -1.1530   -1.5160 cd        1 746     -0.069400
     15 N19         3.5550   -0.1730    1.7600 n         1 746     -0.473100
     16 C21         4.2180   -0.5440    2.9240 c         1 746      0.680700
     17 O22         3.6250   -0.7790    3.9930 o         1 746     -0.584100
     18 C23         5.7020   -0.6640    2.8170 ca        1 746     -0.154600
     19 C24         6.3300   -1.7240    3.4820 ca        1 746     -0.090500
     20 C26         7.7120   -1.8620    3.4190 ca        1 746     -0.137500
     21 C28         8.4980   -0.9440    2.7050 ca        1 746     -0.038300
     22 C29         7.8600    0.1200    2.0580 ca        1 746     -0.137500
     23 C31         6.4730    0.2600    2.1110 ca        1 746     -0.090500
     24 C33         9.9920   -1.1310    2.6660 c3        1 746     -0.014700
     25 C34        10.3150   -2.4870    2.0440 c3        1 746     -0.087100
     26 C38        10.6920   -0.0530    1.8470 c3        1 746     -0.087100
     27 C42        10.5440   -1.0840    4.0880 c3        1 746     -0.087100
     28 C46        -0.2610    3.2600   -4.0130 ca        1 746      0.163600
     29 N47        -1.0700    2.1100   -4.0750 nh        1 746     -0.678600
     30 C48         0.3030    3.7650   -5.2100 ca        1 746     -0.159000
     31 C49         1.0480    4.9370   -5.1990 ca        1 746     -0.075500
     32 C50         1.2530    5.6320   -4.0040 ca        1 746     -0.158600
     33 C51         0.6820    5.1540   -2.8210 ca        1 746     -0.075500
     34 C52        -0.0660    3.9810   -2.8160 ca        1 746     -0.159000
     35 C60        -2.4390   -2.5000   -3.0590 c3        1 746      0.063300
     36 C71         2.0030    6.9180   -3.9710 c         1 746      0.670700
     37 O72         1.4950    7.9390   -3.4660 o         1 746     -0.593100
     38 C81         5.3370    5.7800   -3.9090 c3        1 746      0.101400
     39 C82         4.0770    5.8120   -4.7890 c3        1 746      0.047000
     40 N83         3.2590    6.9850   -4.5780 n         1 746     -0.458800
     41 C84         4.0150    8.2210   -4.5280 c3        1 746      0.047000
     42 C85         5.2750    8.1330   -3.6570 c3        1 746      0.101400
     43 O86         6.0680    6.9970   -3.9890 os        1 746     -0.412600
     44 H3          1.8330   -0.6390   -1.7820 hc        1 746      0.045700
     45 H3A         3.0430   -1.3840   -0.6710 hc        1 746      0.045700
     46 H3B         3.1490    0.3850   -1.0880 hc        1 746      0.045700
     47 H5          1.7580    0.3630    3.7170 ha        1 746      0.170000
     48 H7         -0.6640    0.7220    3.3840 ha        1 746      0.138000
     49 H9         -1.6680    0.5730    1.1040 ha        1 746      0.138000
     50 H17        -1.1790   -2.0210   -0.8380 h4        1 746      0.171000
     51 HN19        4.1010   -0.1030    0.9300 hn        1 746      0.321500
     52 H24         5.7210   -2.4370    4.0610 ha        1 746      0.145000
     53 H26         8.1920   -2.7030    3.9450 ha        1 746      0.140500
     54 H29         8.4410    0.8680    1.4970 ha        1 746      0.140500
     55 H31         6.0020    1.1190    1.6080 ha        1 746      0.145000
     56 H34         9.8660   -3.3140    2.6440 hc        1 746      0.039033
     57 H34A        9.9150   -2.5410    1.0030 hc        1 746      0.039033
     58 H34B       11.4220   -2.6350    2.0100 hc        1 746      0.039033
     59 H38        10.3340   -0.0650    0.7910 hc        1 746      0.039033
     60 H38A       10.5090    0.9570    2.2870 hc        1 746      0.039033
     61 H38B       11.7940   -0.2400    1.8460 hc        1 746      0.039033
     62 H42        10.3090   -0.1020    4.5620 hc        1 746      0.039033
     63 H42A       11.6520   -1.2170    4.0690 hc        1 746      0.039033
     64 H42B       10.1000   -1.8970    4.7110 hc        1 746      0.039033
     65 HN47       -1.3570    1.8380   -4.9970 hn        1 746      0.452800
     66 H48         0.1500    3.2380   -6.1650 ha        1 746      0.152000
     67 H49         1.4740    5.3200   -6.1400 ha        1 746      0.148000
     68 H51         0.8130    5.7230   -1.8860 ha        1 746      0.148000
     69 H52        -0.5080    3.6370   -1.8680 ha        1 746      0.152000
     70 H60        -1.7100   -3.3530   -3.0690 h1        1 746      0.063367
     71 H60A       -2.9200   -2.4130   -4.0710 h1        1 746      0.063367
     72 H60B       -3.2300   -2.6990   -2.2880 h1        1 746      0.063367
     73 H81A        5.0700    5.5730   -2.8390 h1        1 746      0.056200
     74 H82         4.4000    5.8190   -5.8710 h1        1 746      0.069200
     75 H82A        3.4870    4.8740   -4.6010 h1        1 746      0.069200
     76 H84         4.3240    8.4620   -5.5860 h1        1 746      0.069200
     77 H84A        3.3620    9.0540   -4.1440 h1        1 746      0.069200
     78 H85         5.9460    9.0080   -3.8600 h1        1 746      0.056200
     79 H85A        5.0080    8.0970   -2.5680 h1        1 746      0.056200
     80 H81         6.0490    5.0010   -4.2860 h1        1 746      0.056200
@<TRIPOS>BOND
     1    1    2 ar  
     2    1    7 ar  
     3    1    8 1   
     4    2    3 1   
     5    2    4 ar  
     6    3   44 1   
     7    3   45 1   
     8    3   46 1   
     9    4    5 ar  
    10    4   15 1   
    11    5    6 ar  
    12    5   47 1   
    13    6    7 ar  
    14    6   48 1   
    15    7   49 1   
    16    8    9 1   
    17    8   14 2   
    18    9   10 2   
    19   10   11 1   
    20   10   29 1   
    21   11   12 2   
    22   11   13 1   
    23   13   14 1   
    24   13   35 1   
    25   14   50 1   
    26   15   16 1   
    27   15   51 1   
    28   16   17 2   
    29   16   18 1   
    30   18   19 ar  
    31   18   23 ar  
    32   19   20 ar  
    33   19   52 1   
    34   20   21 ar  
    35   20   53 1   
    36   21   22 ar  
    37   21   24 1   
    38   22   23 ar  
    39   22   54 1   
    40   23   55 1   
    41   24   25 1   
    42   24   26 1   
    43   24   27 1   
    44   25   56 1   
    45   25   57 1   
    46   25   58 1   
    47   26   59 1   
    48   26   60 1   
    49   26   61 1   
    50   27   62 1   
    51   27   63 1   
    52   27   64 1   
    53   28   29 1   
    54   28   30 ar  
    55   28   34 ar  
    56   29   65 1   
    57   30   31 ar  
    58   30   66 1   
    59   31   32 ar  
    60   31   67 1   
    61   32   33 ar  
    62   32   36 1   
    63   33   34 ar  
    64   33   68 1   
    65   34   69 1   
    66   35   70 1   
    67   35   71 1   
    68   35   72 1   
    69   36   37 2   
    70   36   40 1   
    71   38   39 1   
    72   38   43 1   
    73   38   73 1   
    74   38   80 1   
    75   39   40 1   
    76   39   74 1   
    77   39   75 1   
    78   40   41 1   
    79   41   42 1   
    80   41   76 1   
    81   41   77 1   
    82   42   43 1   
    83   42   78 1   
    84   42   79 1   
@<TRIPOS>SUBSTRUCTURE
     1 746         1 TEMP              0 ****  ****    0 ROOT
