@<TRIPOS>MOLECULE
749
   63    62     1     0     0
SMALL
bcc


@<TRIPOS>ATOM
      1 CAA         5.3120   -0.0630   -0.8910 c3        1 749     -0.071400
      2 CAB         6.2050   -2.0360   -2.1660 c3        1 749     -0.071400
      3 CAC        -5.6780   -3.7850    0.3970 c3        1 749     -0.071400
      4 CAD        -5.0430   -1.4070    0.9020 c3        1 749     -0.071400
      5 CAE         1.3670   -2.4120    3.2640 c3        1 749      0.014100
      6 CAF        -1.0550    0.2300   -3.5440 c3        1 749      0.014100
      7 OAG        -1.8090    1.6380    2.8810 o         1 749     -0.970500
      8 OAH         2.0470    2.6190    2.1510 o         1 749     -0.970500
      9 OAI        -2.5430    0.4700    0.8080 o         1 749     -0.970500
     10 OAJ        -2.1920    2.9470    0.7390 o         1 749     -0.970500
     11 OAK         1.7100    3.1510   -0.3100 o         1 749     -0.970500
     12 OAL         2.6420    0.9490    0.3850 o         1 749     -0.970500
     13 CAM         4.7590   -2.3860   -0.2010 c2        1 749     -0.135200
     14 CAN        -4.2870   -2.5140   -1.1920 c2        1 749     -0.135200
     15 CAO         1.0880   -1.1000    1.1510 c2        1 749      0.044800
     16 CAP        -0.8230   -0.2890   -1.1070 c2        1 749      0.044800
     17 CAQ         3.9150   -1.9620    0.9330 c3        1 749     -0.124200
     18 CAR        -3.5380   -1.3360   -1.6710 c3        1 749     -0.124200
     19 CAS         0.2940    0.0340    1.6910 c3        1 749     -0.001200
     20 CAT        -0.1700    0.9720   -0.6670 c3        1 749     -0.001200
     21 CAU         2.7400   -2.8970    1.1970 c3        1 749      0.033800
     22 CAV        -2.2870   -1.6960   -2.4640 c3        1 749      0.033800
     23 CAW         5.3930   -1.5350   -1.0280 c2        1 749     -0.157400
     24 CAX        -4.9680   -2.5530   -0.0330 c2        1 749     -0.157400
     25 CAY         1.6410   -2.1240    1.8460 c2        1 749     -0.360400
     26 CAZ        -1.2980   -0.5840   -2.3420 c2        1 749     -0.360400
     27 CBA         0.0210    1.1990    0.7970 c3        1 749     -0.397400
     28 PBB        -1.7270    1.6570    1.3700 p5        1 749      1.262700
     29 PBC         1.6880    2.1000    0.7790 p5        1 749      1.262700
     30 HAA         5.6100    0.4420   -1.8420 hc        1 749      0.036200
     31 HAAA        4.2560    0.2950   -0.5990 hc        1 749      0.036200
     32 HAAB        5.9970    0.2840   -0.0790 hc        1 749      0.036200
     33 HAB         7.2450   -1.6260   -2.1150 hc        1 749      0.036200
     34 HABA        6.2730   -3.1520   -2.1790 hc        1 749      0.036200
     35 HABB        5.7520   -1.7030   -3.1340 hc        1 749      0.036200
     36 HAC        -5.2220   -4.1800    1.3390 hc        1 749      0.036200
     37 HACA       -6.7560   -3.5640    0.6040 hc        1 749      0.036200
     38 HACB       -5.6330   -4.5910   -0.3770 hc        1 749      0.036200
     39 HAD        -5.7920   -0.6630    0.5360 hc        1 749      0.036200
     40 HADA       -5.3500   -1.7450    1.9210 hc        1 749      0.036200
     41 HADB       -4.0400   -0.8430    0.9870 hc        1 749      0.036200
     42 HAE         0.9600   -3.4510    3.3930 hc        1 749     -0.007967
     43 HAEA        2.3000   -2.3500    3.8820 hc        1 749     -0.007967
     44 HAEB        0.6210   -1.6850    3.6720 hc        1 749     -0.007967
     45 HAF        -0.5510   -0.3740   -4.3460 hc        1 749     -0.007967
     46 HAFA       -2.0140    0.6130   -3.9810 hc        1 749     -0.007967
     47 HAFB       -0.4040    1.1060   -3.2970 hc        1 749     -0.007967
     48 HAM         4.8350   -3.4750   -0.3710 ha        1 749      0.050000
     49 HAN        -4.2460   -3.4120   -1.8340 ha        1 749      0.050000
     50 HAO         1.3410   -1.0200    0.0730 ha        1 749      0.135000
     51 HAP        -1.0380   -1.0110   -0.2920 ha        1 749      0.135000
     52 HAQ         4.5520   -1.8900    1.8560 hc        1 749      0.117200
     53 HAQA        3.4960   -0.8990    0.7540 hc        1 749      0.117200
     54 HAR        -4.2150   -0.7050   -2.3050 hc        1 749      0.117200
     55 HARA       -3.2200   -0.6670   -0.7820 hc        1 749      0.117200
     56 HAS        -0.6710   -0.3900    2.1040 hc        1 749      0.059200
     57 HASA        0.8810    0.4350    2.5760 hc        1 749      0.059200
     58 HAT         0.8150    1.0570   -1.2190 hc        1 749      0.059200
     59 HATA       -0.8310    1.8150   -1.0430 hc        1 749      0.059200
     60 HAU         2.3870   -3.3370    0.2250 hc        1 749     -0.025800
     61 HAUA        3.0670   -3.7590    1.8400 hc        1 749     -0.025800
     62 HAV        -1.8510   -2.6500   -2.0630 hc        1 749     -0.025800
     63 HAVA       -2.5500   -1.8900   -3.5390 hc        1 749     -0.025800
@<TRIPOS>BOND
     1    1   23 1   
     2    1   30 1   
     3    1   31 1   
     4    1   32 1   
     5    2   23 1   
     6    2   33 1   
     7    2   34 1   
     8    2   35 1   
     9    3   24 1   
    10    3   36 1   
    11    3   37 1   
    12    3   38 1   
    13    4   24 1   
    14    4   39 1   
    15    4   40 1   
    16    4   41 1   
    17    5   25 1   
    18    5   42 1   
    19    5   43 1   
    20    5   44 1   
    21    6   26 1   
    22    6   45 1   
    23    6   46 1   
    24    6   47 1   
    25    7   28 1   
    26    8   29 1   
    27    9   28 1   
    28   10   28 1   
    29   11   29 1   
    30   12   29 1   
    31   13   17 1   
    32   13   23 2   
    33   13   48 1   
    34   14   18 1   
    35   14   24 2   
    36   14   49 1   
    37   15   19 1   
    38   15   25 2   
    39   15   50 1   
    40   16   20 1   
    41   16   26 2   
    42   16   51 1   
    43   17   21 1   
    44   17   52 1   
    45   17   53 1   
    46   18   22 1   
    47   18   54 1   
    48   18   55 1   
    49   19   27 1   
    50   19   56 1   
    51   19   57 1   
    52   20   27 1   
    53   20   58 1   
    54   20   59 1   
    55   21   25 1   
    56   21   60 1   
    57   21   61 1   
    58   22   26 1   
    59   22   62 1   
    60   22   63 1   
    61   27   28 1   
    62   27   29 1   
@<TRIPOS>SUBSTRUCTURE
     1 749         1 TEMP              0 ****  ****    0 ROOT
