@<TRIPOS>MOLECULE
749
   63    58     1     0     0
SMALL
bcc


@<TRIPOS>ATOM
      1 CAA         7.6590   -0.9650    4.5000 c3        1 749     -0.107250
      2 CAB         9.2960   -1.4590    2.4990 c3        1 749     -0.107250
      3 CAC        -6.3230   -0.4050   -5.3780 c3        1 749     -0.107250
      4 CAD        -8.2770    1.3680   -5.1760 c3        1 749     -0.107250
      5 CAE         2.6770   -1.7980    2.7510 c3        1 749     -0.177000
      6 CAF        -4.3520   -0.8040   -0.3010 c3        1 749     -0.177000
      7 OAG         1.2040    2.1610   -1.1730 o         1 749     -0.829500
      8 OAH        -1.6280    2.3670    2.2330 o         1 749     -0.829500
      9 OAI         1.6030   -0.2740   -1.1450 o         1 749     -0.829500
     10 OAJ        -0.4740    0.6240   -2.1270 o         1 749     -0.829500
     11 OAK         0.7950    2.7510    2.0110 o         1 749     -0.829500
     12 OAL        -0.7200    3.3420    0.1560 o         1 749     -0.829500
     13 CAM         6.8230   -1.2600    2.1640 c1        1 749     -0.029000
     14 CAN        -6.4670    1.1790   -3.4480 c1        1 749     -0.029000
     15 CAO         2.1030    0.1240    1.2640 c1        1 749      0.014500
     16 CAP        -2.5400    0.9100   -0.4990 c1        1 749      0.014500
     17 CAQ         5.4040   -1.0290    2.6900 c2        1 749     -0.373000
     18 CAR        -5.2020    0.5470   -2.8980 c2        1 749     -0.373000
     19 CAS         0.6030   -0.1630    1.5330 c2        1 749     -0.086500
     20 CAT        -1.6610    0.0280    0.4140 c2        1 749     -0.086500
     21 CAU         4.5480   -0.3800    1.5860 c3        1 749     -0.212500
     22 CAV        -4.6830    1.3790   -1.7350 c3        1 749     -0.212500
     23 CAW         7.8860   -1.2290    3.0230 c2        1 749     -0.363000
     24 CAX        -6.9990    0.7300   -4.6200 c2        1 749     -0.363000
     25 CAY         3.0730   -0.6630    1.8510 c2        1 749     -0.138000
     26 CAZ        -3.8130    0.5050   -0.8300 c2        1 749     -0.138000
     27 CBA        -0.2610    0.6910    0.5820 c3        1 749     -1.312000
     28 PBB         0.5510    0.8050   -1.0330 p5        1 749      1.689000
     29 PBC        -0.4620    2.3570    1.2760 p5        1 749      1.689000
     30 HAA         8.4880   -1.1260    4.9910 hc        1 749      0.034417
     31 HAAA        6.9620   -1.5610    4.8340 hc        1 749      0.034417
     32 HAAB        7.3810   -0.0340    4.6260 hc        1 749      0.034417
     33 HAB         9.9420   -1.1480    3.1580 hc        1 749      0.034417
     34 HABA        9.4180   -0.9650    1.6640 hc        1 749      0.034417
     35 HABB        9.4320   -2.4150    2.3350 hc        1 749      0.034417
     36 HAC        -5.4070   -0.1390   -5.6170 hc        1 749      0.034417
     37 HACA       -6.2950   -1.2050   -4.8110 hc        1 749      0.034417
     38 HACB       -6.8280   -0.5990   -6.1900 hc        1 749      0.034417
     39 HAD        -8.0630    1.8730   -5.9890 hc        1 749      0.034417
     40 HADA       -8.9310    0.6620   -5.3890 hc        1 749      0.034417
     41 HADB       -8.6560    1.9730   -4.5080 hc        1 749      0.034417
     42 HAE         2.8590   -1.5560    3.6810 hc        1 749      0.071667
     43 HAEA        3.1930   -2.6000    2.5130 hc        1 749      0.071667
     44 HAEB        1.7260   -1.9810    2.6430 hc        1 749      0.071667
     45 HAF        -5.3260   -0.8540   -0.4740 hc        1 749      0.071667
     46 HAFA       -4.1890   -0.8580    0.6560 hc        1 749      0.071667
     47 HAFB       -3.9020   -1.5470   -0.7510 hc        1 749      0.071667
     48 HAM         6.9700   -1.4310    1.2100 ha        1 749      0.059500
     49 HAN        -6.9000    1.9060   -2.9630 ha        1 749      0.059500
     50 HAO         2.3610    0.8590    0.6810 ha        1 749      0.120000
     51 HAP        -2.1920    1.7590   -0.8430 ha        1 749      0.120000
     52 HAQ         5.0090   -1.8840    2.9490 ha        1 749      0.099500
     53 HAQA        5.4370   -0.4350    3.4700 ha        1 749      0.099500
     54 HAR        -5.4000   -0.3650   -2.5860 ha        1 749      0.099500
     55 HARA       -4.5270    0.5110   -3.5970 ha        1 749      0.099500
     56 HAS         0.3870    0.0650    2.4650 ha        1 749      0.067000
     57 HASA        0.4190   -1.1130    1.3770 ha        1 749      0.067000
     58 HAT        -1.5570   -0.8580    0.0110 ha        1 749      0.067000
     59 HATA       -2.0860   -0.0600    1.2890 ha        1 749      0.067000
     60 HAU         4.6980    0.5830    1.5830 hc        1 749      0.050500
     61 HAUA        4.8000   -0.7510    0.7170 hc        1 749      0.050500
     62 HAV        -4.1490    2.1250   -2.0800 hc        1 749      0.050500
     63 HAVA       -5.4380    1.7290   -1.2220 hc        1 749      0.050500
@<TRIPOS>BOND
     1    1   23 1   
     2    1   30 1   
     3    1   31 1   
     4    1   32 1   
     5    2   23 1   
     6    2   33 1   
     7    2   34 1   
     8    2   35 1   
     9    3   24 1   
    10    3   36 1   
    11    3   37 1   
    12    3   38 1   
    13    4   24 1   
    14    4   39 1   
    15    4   40 1   
    16    4   41 1   
    17    5   25 1   
    18    5   42 1   
    19    5   43 1   
    20    5   44 1   
    21    6   26 1   
    22    6   45 1   
    23    6   46 1   
    24    6   47 1   
    25    7   28 1   
    26    8   29 1   
    27    9   28 1   
    28   10   28 1   
    29   11   29 1   
    30   12   29 1   
    31   13   23 1   
    32   13   48 1   
    33   14   24 1   
    34   14   49 1   
    35   15   25 1   
    36   15   50 1   
    37   16   26 1   
    38   16   51 1   
    39   17   21 1   
    40   17   52 1   
    41   17   53 1   
    42   18   22 1   
    43   18   54 1   
    44   18   55 1   
    45   19   27 1   
    46   19   56 1   
    47   19   57 1   
    48   20   27 1   
    49   20   58 1   
    50   20   59 1   
    51   21   25 1   
    52   21   60 1   
    53   21   61 1   
    54   22   26 1   
    55   22   62 1   
    56   22   63 1   
    57   27   28 1   
    58   27   29 1   
@<TRIPOS>SUBSTRUCTURE
     1 749         1 TEMP              0 ****  ****    0 ROOT
