@<TRIPOS>MOLECULE
749
   63    63     1     0     0
SMALL
bcc


@<TRIPOS>ATOM
      1 CAA         0.0000    0.0000    0.0000 c3        1 749     -0.038000
      2 CAB         2.2600    0.0000    1.3060 c3        1 749     -0.038000
      3 CAC         2.9780    1.2260  -13.4330 c3        1 749     -0.069000
      4 CAD         0.8490    1.6010  -11.9710 c3        1 749     -0.069000
      5 CAE         1.6460    0.6010   -5.7310 c3        1 749     -0.048000
      6 CAF         2.4350    5.9840   -8.2070 c3        1 749     -0.073000
      7 OAG        -2.7070    3.9740   -7.8130 o         1 749     -0.715000
      8 OAH        -2.8080    4.0680   -4.7370 o         1 749     -0.715000
      9 OAI        -0.6040    3.2260   -8.9920 o         1 749     -0.715000
     10 OAJ        -1.0080    5.7520   -8.3860 o         1 749     -0.715000
     11 OAK        -1.7160    6.2220   -5.4670 o         1 749     -0.715000
     12 OAL        -0.5670    4.9050   -3.6470 o         1 749     -0.715000
     13 CAM         2.1620    0.0010   -1.1340 c2        1 749     -0.172000
     14 CAN         2.8220    3.0290  -11.7940 c2        1 749     -0.641000
     15 CAO         0.2120    2.2480   -4.6370 c2        1 749     -0.018000
     16 CAP         1.7400    3.7900   -7.3930 c2        1 749     -0.068000
     17 CAQ         1.4140    0.1240   -2.4370 c3        1 749     -0.081000
     18 CAR         2.1360    3.7370  -10.6540 DU        1 749     -0.123000
     19 CAS        -0.4530    2.4690   -5.9710 c3        1 749     -0.069000
     20 CAT         0.9610    4.5000   -6.3170 c3        1 749     -0.054000
     21 CAU         1.9750    1.3010   -3.2380 c3        1 749     -0.011000
     22 CAV         3.0680    3.7740   -9.4410 c3        1 749      0.030000
     23 CAW         1.5070    0.0000    0.0000 c2        1 749     -0.259000
     24 CAX         2.2460    2.0030  -12.3710 c2        1 749     -0.170000
     25 CAY         1.2260    1.4250   -4.5400 c2        1 749     -0.362000
     26 CAZ         2.3820    4.4810   -8.3020 c2        1 749     -0.240000
     27 CBA        -0.4730    3.9660   -6.2890 c3        1 749     -0.671000
     28 PBB        -1.2530    4.2310   -7.9150 p5        1 749      0.888000
     29 PBC        -1.4250    4.8460   -5.0070 p5        1 749      0.888000
     30 HAA        -0.3610   -0.7810   -0.6590 hc        1 749      0.026667
     31 HAAA       -0.3610    0.9610   -0.3470 hc        1 749      0.026667
     32 HAAB       -0.3610   -0.1800    1.0050 hc        1 749      0.026667
     33 HAB         2.8360    0.9140    1.3900 hc        1 749      0.026667
     34 HABA        1.5580   -0.0620    2.1280 hc        1 749      0.026667
     35 HABB        2.9280   -0.8520    1.3370 hc        1 749      0.026667
     36 HAC         3.0250    0.1810  -13.1490 hc        1 749      0.024833
     37 HACA        3.9830    1.6160  -13.5380 hc        1 749      0.024833
     38 HACB        2.4540    1.3200  -14.3760 hc        1 749      0.024833
     39 HAD         0.1980    2.4650  -12.0150 hc        1 749      0.024833
     40 HADA        0.4840    0.8390  -12.6500 hc        1 749      0.024833
     41 HADB        0.8610    1.2090  -10.9610 hc        1 749      0.024833
     42 HAE         2.3340    1.1730   -6.3410 hc        1 749      0.026667
     43 HAEA        2.1320   -0.3050   -5.3900 hc        1 749      0.026667
     44 HAEB        0.7720    0.3430   -6.3170 hc        1 749      0.026667
     45 HAF         2.7400    6.2730   -7.2080 hc        1 749      0.037000
     46 HAFA        3.1480    6.3670   -8.9270 hc        1 749      0.037000
     47 HAFB        1.4540    6.3940   -8.4170 hc        1 749      0.037000
     48 HAM         3.2450    0.0010   -1.1320 ha        1 749      0.075000
     49 HAN         2.0580    3.7790  -11.9580 DU        1 749      0.259000
     50 HAO        -0.0880    2.8380   -3.7800 ha        1 749      0.180000
     51 HAP         1.7030    2.7090   -7.4620 ha        1 749      0.099000
     52 HAQ         0.3630    0.2930   -2.2360 hc        1 749      0.057000
     53 HAQA        1.5300   -0.7890   -3.0080 hc        1 749      0.057000
     54 HAR         1.2270    3.2070  -10.3950 ha        1 749      0.093500
     55 HARA        1.8910    4.7490  -10.9530 ha        1 749      0.093500
     56 HAS         0.0990    1.9440   -6.7410 hc        1 749      0.066000
     57 HASA       -1.4680    2.0940   -5.9350 hc        1 749      0.066000
     58 HAT         0.9470    5.5630   -6.5240 hc        1 749      0.059000
     59 HATA        1.4300    4.3260   -5.3570 hc        1 749      0.059000
     60 HAU         3.0260    1.1320   -3.4400 hc        1 749      0.037500
     61 HAUA        1.8590    2.2140   -2.6670 hc        1 749      0.037500
     62 HAV         3.3140    2.7620   -9.1430 hc        1 749      0.011500
     63 HAVA        3.9770    4.3040   -9.7000 hc        1 749      0.011500
@<TRIPOS>BOND
     1    1   23 1   
     2    1   30 1   
     3    1   31 1   
     4    1   32 1   
     5    2   23 1   
     6    2   33 1   
     7    2   34 1   
     8    2   35 1   
     9    3   24 1   
    10    3   36 1   
    11    3   37 1   
    12    3   38 1   
    13    4   24 1   
    14    4   39 1   
    15    4   40 1   
    16    4   41 1   
    17    5   25 1   
    18    5   42 1   
    19    5   43 1   
    20    5   44 1   
    21    6   26 1   
    22    6   45 1   
    23    6   46 1   
    24    6   47 1   
    25    7   28 1   
    26    8   29 1   
    27    9   28 1   
    28   10   28 1   
    29   11   29 1   
    30   12   29 1   
    31   13   17 1   
    32   13   23 1   
    33   13   48 1   
    34   14   18 1   
    35   14   24 1   
    36   14   49 1   
    37   15   19 1   
    38   15   25 1   
    39   15   50 1   
    40   16   20 1   
    41   16   26 1   
    42   16   51 1   
    43   17   21 1   
    44   17   52 1   
    45   17   53 1   
    46   18   22 1   
    47   18   49 1   
    48   18   54 1   
    49   18   55 1   
    50   19   27 1   
    51   19   56 1   
    52   19   57 1   
    53   20   27 1   
    54   20   58 1   
    55   20   59 1   
    56   21   25 1   
    57   21   60 1   
    58   21   61 1   
    59   22   26 1   
    60   22   62 1   
    61   22   63 1   
    62   27   28 1   
    63   27   29 1   
@<TRIPOS>SUBSTRUCTURE
     1 749         1 TEMP              0 ****  ****    0 ROOT
