@<TRIPOS>MOLECULE
74A
   89    92     1     0     0
SMALL
bcc


@<TRIPOS>ATOM
      1 C1          0.9630   -0.0360    0.7790 c         1 74A      0.670700
      2 F1          5.9310   -8.6790    3.3670 f         1 74A     -0.106900
      3 N1          2.2710    0.2560    0.3070 n         1 74A     -0.438800
      4 O1          0.8400   -0.6480    1.8590 o         1 74A     -0.604100
      5 C2         10.0910   -1.5180    5.2020 ca        1 74A     -0.182600
      6 F2          6.1910   -8.0890   -1.3550 f         1 74A     -0.106900
      7 N2          6.5410   -3.7430    2.6420 n4        1 74A     -0.675800
      8 O2         12.3610   -1.3920    4.4300 o         1 74A     -0.398100
      9 C3         11.5570   -1.4230    5.3530 c         1 74A      0.556700
     10 N3          4.2520   -1.7390   -0.5460 n3        1 74A     -0.801200
     11 O3          8.4360   -2.9770    1.5340 o         1 74A     -0.401100
     12 C4          7.8180   -2.9580    2.5900 c         1 74A      0.558700
     13 N4         12.1140   -1.3800    6.7580 n4        1 74A     -0.588200
     14 O4          4.4690   -1.9840    3.1890 oh        1 74A     -0.647800
     15 C5          3.8480   -1.5870    0.8490 c3        1 74A      0.089500
     16 C6          5.5600   -3.3660    1.5450 c3        1 74A      0.119500
     17 C7          8.2430   -2.2740    3.8280 ca        1 74A     -0.182600
     18 C8          4.9450   -1.9740    1.8530 c3        1 74A      0.137100
     19 C9          3.3650   -0.1400    1.1680 c3        1 74A      0.039000
     20 C10         9.6230   -2.1960    4.0660 ca        1 74A     -0.004000
     21 C11         5.0580   -5.8170    1.2690 ca        1 74A     -0.091300
     22 C12         4.4830   -4.4500    1.4120 c3        1 74A     -0.063100
     23 C13         9.1860   -0.9010    6.0730 ca        1 74A     -0.056000
     24 C14         7.3390   -1.6560    4.6980 ca        1 74A     -0.050000
     25 C15        -0.2050    0.4540    0.0110 ca        1 74A     -0.162600
     26 C16         6.0810   -8.4290    1.0000 ca        1 74A     -0.186000
     27 C17         5.7520   -7.9170    2.2660 ca        1 74A      0.182400
     28 C18         5.8860   -7.6160   -0.1290 ca        1 74A      0.182400
     29 C19         7.8090   -0.9660    5.8250 ca        1 74A     -0.042300
     30 C20         5.2430   -6.6120    2.4050 ca        1 74A     -0.205500
     31 C21         5.3790   -6.3060    0.0030 ca        1 74A     -0.205500
     32 C22         2.5690    0.0800   -1.1020 c3        1 74A      0.032000
     33 C23         3.1950   -1.2940   -1.4440 c3        1 74A      0.113800
     34 C24        12.6990   -2.7140    7.1380 c3        1 74A      0.108300
     35 C25        13.0980   -0.2500    6.8870 c3        1 74A      0.108300
     36 C26        -1.3810   -0.3090    0.0470 ca        1 74A     -0.084000
     37 C27        -0.1790    1.6680   -0.6840 ca        1 74A     -0.084000
     38 C28         6.8550   -0.2830    6.7300 c3        1 74A     -0.082800
     39 C29        14.0000   -3.0870    6.4380 c3        1 74A     -0.100900
     40 C30        13.5880   -0.0260    8.3120 c3        1 74A     -0.100900
     41 C31        14.3440   -4.5200    6.7630 c3        1 74A     -0.104100
     42 C32        14.4340    1.2240    8.3530 c3        1 74A     -0.104100
     43 C33        -1.3220    2.1080   -1.3520 ca        1 74A     -0.134500
     44 C34        -2.5160    0.1330   -0.6300 ca        1 74A     -0.134500
     45 C35        -2.4870    1.3400   -1.3300 ca        1 74A     -0.085000
     46 HN2         6.7640   -4.7480    2.5330 hn        1 74A      0.473800
     47 HN3         5.0830   -1.1950   -0.7110 hn        1 74A      0.353800
     48 HO4         3.4990   -2.0040    3.1890 ho        1 74A      0.463000
     49 H5          2.9680   -2.2850    1.0150 h1        1 74A      0.092700
     50 H6          6.1540   -3.3060    0.5830 hx        1 74A      0.138700
     51 H8          5.7700   -1.2020    1.8370 h1        1 74A      0.071700
     52 H9          4.2130    0.5830    1.0020 h1        1 74A      0.074200
     53 H9A         3.0450   -0.0760    2.2440 h1        1 74A      0.074200
     54 H10        10.3380   -2.6450    3.3510 ha        1 74A      0.190000
     55 H12         3.7890   -4.4050    2.2940 hc        1 74A      0.105700
     56 H12A        3.8790   -4.2040    0.4910 hc        1 74A      0.105700
     57 H13         9.5250   -0.3200    6.9480 ha        1 74A      0.155000
     58 H14         6.2480   -1.6590    4.5010 ha        1 74A      0.189000
     59 H16         6.4650   -9.4560    0.8930 ha        1 74A      0.193000
     60 H20         4.9280   -6.2640    3.4000 ha        1 74A      0.159000
     61 H21         5.2200   -5.6960   -0.9000 ha        1 74A      0.159000
     62 H22         3.2880    0.8970   -1.3950 h1        1 74A      0.081200
     63 H22A        1.6300    0.2050   -1.7110 h1        1 74A      0.081200
     64 H23         3.6170   -1.2420   -2.4860 h1        1 74A      0.079700
     65 H23A        2.3900   -2.0820   -1.4330 h1        1 74A      0.079700
     66 H24        11.9120   -3.4910    6.9170 hx        1 74A      0.105950
     67 H24A       12.8740   -2.6850    8.2540 hx        1 74A      0.105950
     68 H25        12.5810    0.6810    6.5110 hx        1 74A      0.105950
     69 H25A       13.9680   -0.4720    6.2030 hx        1 74A      0.105950
     70 H26        -1.4050   -1.2470    0.6240 ha        1 74A      0.146500
     71 H27         0.7300    2.2890   -0.6930 ha        1 74A      0.146500
     72 H28         5.8560   -0.7870    6.7210 hc        1 74A      0.080033
     73 H28A        6.7110    0.7790    6.3980 hc        1 74A      0.080033
     74 H28B        7.2330   -0.2710    7.7830 hc        1 74A      0.080033
     75 H29        13.9060   -2.9600    5.3270 hc        1 74A      0.069950
     76 H29A       14.8290   -2.4150    6.7880 hc        1 74A      0.069950
     77 H30        12.7210    0.0840    9.0160 hc        1 74A      0.069950
     78 H30A       14.2000   -0.9030    8.6530 hc        1 74A      0.069950
     79 H31        13.5600   -5.2190    6.3830 hc        1 74A      0.064200
     80 H31A       14.4500   -4.6680    7.8650 hc        1 74A      0.064200
     81 H31B       15.3170   -4.7860    6.2790 hc        1 74A      0.064200
     82 H32        13.8390    2.1230    8.0600 hc        1 74A      0.064200
     83 H32A       14.8170    1.3790    9.3930 hc        1 74A      0.064200
     84 H32B       15.3110    1.1360    7.6670 hc        1 74A      0.064200
     85 H33        -1.3040    3.0670   -1.8930 ha        1 74A      0.151000
     86 H34        -3.4380   -0.4680   -0.6040 ha        1 74A      0.151000
     87 H35        -3.3870    1.6910   -1.8600 ha        1 74A      0.152000
     88 H221        6.0700   -3.6040    3.5450 hn        1 74A      0.473800
     89 H41        11.3430   -1.2010    7.4130 hn        1 74A      0.445800
@<TRIPOS>BOND
     1    1    3 1   
     2    1    4 2   
     3    1   25 1   
     4    2   27 1   
     5    3   19 1   
     6    3   32 1   
     7    5    9 1   
     8    5   20 ar  
     9    5   23 ar  
    10    6   28 1   
    11    7   12 1   
    12    7   16 1   
    13    7   46 1   
    14    7   88 1   
    15    8    9 2   
    16    9   13 1   
    17   10   15 1   
    18   10   33 1   
    19   10   47 1   
    20   11   12 2   
    21   12   17 1   
    22   13   34 1   
    23   13   35 1   
    24   13   89 1   
    25   14   18 1   
    26   14   48 1   
    27   15   18 1   
    28   15   19 1   
    29   15   49 1   
    30   16   18 1   
    31   16   22 1   
    32   16   50 1   
    33   17   20 ar  
    34   17   24 ar  
    35   18   51 1   
    36   19   52 1   
    37   19   53 1   
    38   20   54 1   
    39   21   22 1   
    40   21   30 ar  
    41   21   31 ar  
    42   22   55 1   
    43   22   56 1   
    44   23   29 ar  
    45   23   57 1   
    46   24   29 ar  
    47   24   58 1   
    48   25   36 ar  
    49   25   37 ar  
    50   26   27 ar  
    51   26   28 ar  
    52   26   59 1   
    53   27   30 ar  
    54   28   31 ar  
    55   29   38 1   
    56   30   60 1   
    57   31   61 1   
    58   32   33 1   
    59   32   62 1   
    60   32   63 1   
    61   33   64 1   
    62   33   65 1   
    63   34   39 1   
    64   34   66 1   
    65   34   67 1   
    66   35   40 1   
    67   35   68 1   
    68   35   69 1   
    69   36   44 ar  
    70   36   70 1   
    71   37   43 ar  
    72   37   71 1   
    73   38   72 1   
    74   38   73 1   
    75   38   74 1   
    76   39   41 1   
    77   39   75 1   
    78   39   76 1   
    79   40   42 1   
    80   40   77 1   
    81   40   78 1   
    82   41   79 1   
    83   41   80 1   
    84   41   81 1   
    85   42   82 1   
    86   42   83 1   
    87   42   84 1   
    88   43   45 ar  
    89   43   85 1   
    90   44   45 ar  
    91   44   86 1   
    92   45   87 1   
@<TRIPOS>SUBSTRUCTURE
     1 74A         1 TEMP              0 ****  ****    0 ROOT
