@<TRIPOS>MOLECULE
74A
   89    92     1     0     0
SMALL
bcc


@<TRIPOS>ATOM
      1 C1          1.3140    0.2170    0.3210 c         1 74A      0.670700
      2 F1          4.7740   -8.2610    5.0310 f         1 74A     -0.106400
      3 N1          2.6320    0.1350   -0.2050 n         1 74A     -0.438800
      4 O1          1.1320   -0.0700    1.5220 o         1 74A     -0.603100
      5 C2         10.1190   -1.9860    5.3070 ca        1 74A     -0.183600
      6 F2          4.9530   -8.9350    0.3160 f         1 74A     -0.106400
      7 N2          6.2150   -3.8650    3.0860 ny        1 74A     -0.674800
      8 O2         12.0540   -3.3980    5.4730 o         1 74A     -0.402100
      9 C3         11.5240   -2.3050    5.6260 c         1 74A      0.558700
     10 N3          4.1900   -2.3360   -0.5190 n7        1 74A     -0.801200
     11 O3          8.1630   -3.6310    1.8290 o         1 74A     -0.399100
     12 C4          7.5990   -3.3300    2.8730 c         1 74A      0.561700
     13 N4         12.3880   -1.1800    6.1520 nx        1 74A     -0.588200
     14 O4          4.5240   -1.6730    3.1560 oh        1 74A     -0.647800
     15 C5          3.8790   -1.7700    0.7910 c3        1 74A      0.090500
     16 C6          5.2780   -3.6010    1.9200 c3        1 74A      0.118500
     17 C7          8.1740   -2.5260    3.9710 ca        1 74A     -0.184600
     18 C8          4.9340   -2.0870    1.8630 c3        1 74A      0.138100
     19 C9          3.6750   -0.2270    0.7320 c3        1 74A      0.039000
     20 C10         9.5190   -2.7500    4.2950 ca        1 74A     -0.004000
     21 C11         4.3410   -5.9100    2.2670 ca        1 74A     -0.092300
     22 C12         4.0220   -4.4710    2.0530 c3        1 74A     -0.063100
     23 C13         9.3760   -1.0120    5.9870 ca        1 74A     -0.059000
     24 C14         7.4360   -1.5400    4.6350 ca        1 74A     -0.050000
     25 C15         0.2200    0.7020   -0.5500 ca        1 74A     -0.162600
     26 C16         4.8750   -8.6460    2.6790 ca        1 74A     -0.186000
     27 C17         4.6910   -7.7810    3.7710 ca        1 74A      0.182900
     28 C18         4.7840   -8.1220    1.3790 ca        1 74A      0.182900
     29 C19         8.0370   -0.7800    5.6500 ca        1 74A     -0.042300
     30 C20         4.4270   -6.4130    3.5690 ca        1 74A     -0.206000
     31 C21         4.5210   -6.7520    1.1700 ca        1 74A     -0.206000
     32 C22         2.8320   -0.4380   -1.5230 c3        1 74A      0.032000
     33 C23         3.1900   -1.9450   -1.5040 c3        1 74A      0.113800
     34 C24        13.7040   -1.1580    5.4250 c3        1 74A      0.108800
     35 C25        12.5460   -1.2810    7.6440 c3        1 74A      0.108800
     36 C26        -1.0700    0.2000   -0.3260 ca        1 74A     -0.083500
     37 C27         0.4310    1.6780   -1.5320 ca        1 74A     -0.083500
     38 C28         7.2600    0.2680    6.3510 c3        1 74A     -0.082800
     39 C29        14.5700    0.0470    5.7670 c3        1 74A     -0.099900
     40 C30        13.4000   -2.4440    8.1360 c3        1 74A     -0.099900
     41 C31        15.7800    0.0590    4.8650 c3        1 74A     -0.104600
     42 C32        13.2810   -2.5470    9.6370 c3        1 74A     -0.104600
     43 C33        -0.6430    2.1360   -2.2940 ca        1 74A     -0.134500
     44 C34        -2.1360    0.6570   -1.0980 ca        1 74A     -0.134500
     45 C35        -1.9240    1.6240   -2.0820 ca        1 74A     -0.085000
     46 HN2         5.7960   -3.4420    3.9250 hn        1 74A      0.474800
     47 HN3         5.0960   -2.0110   -0.8140 hn        1 74A      0.353800
     48 HO4         3.5660   -1.5190    3.1600 ho        1 74A      0.463000
     49 H5          2.8980   -2.2330    1.1260 h1        1 74A      0.092700
     50 H6          5.8380   -3.8880    0.9790 hx        1 74A      0.137700
     51 H8          5.8820   -1.5090    1.6520 h1        1 74A      0.070700
     52 H9          3.4170    0.1600    1.7560 h1        1 74A      0.074200
     53 H9A         4.6290    0.2650    0.3920 h1        1 74A      0.074200
     54 H10        10.1030   -3.5230    3.7610 ha        1 74A      0.189000
     55 H12         3.3780   -4.0820    2.8880 hc        1 74A      0.105700
     56 H12A        3.4390   -4.3590    1.0940 hc        1 74A      0.105700
     57 H13         9.8160   -0.4240    6.8100 ha        1 74A      0.154000
     58 H14         6.3850   -1.3230    4.3610 ha        1 74A      0.190000
     59 H16         5.0690   -9.7190    2.8400 ha        1 74A      0.193000
     60 H20         4.2170   -5.7750    4.4400 ha        1 74A      0.159000
     61 H21         4.4380   -6.3700    0.1400 ha        1 74A      0.159000
     62 H22         3.6710    0.1350   -2.0120 h1        1 74A      0.080700
     63 H22A        1.9050   -0.3010   -2.1470 h1        1 74A      0.080700
     64 H23         2.2600   -2.5450   -1.2960 h1        1 74A      0.079700
     65 H23A        3.5690   -2.2320   -2.5240 h1        1 74A      0.079700
     66 H24        14.2490   -2.1160    5.6700 hx        1 74A      0.105450
     67 H24A       13.4700   -1.1560    4.3210 hx        1 74A      0.105450
     68 H25        11.5080   -1.3650    8.0790 hx        1 74A      0.105450
     69 H25A       13.0070   -0.3100    7.9900 hx        1 74A      0.105450
     70 H26        -1.2340   -0.5430    0.4690 ha        1 74A      0.146500
     71 H27         1.4340    2.1000   -1.6950 ha        1 74A      0.146500
     72 H28         7.6210    0.4070    7.4010 hc        1 74A      0.080033
     73 H28A        6.1720    0.0090    6.3860 hc        1 74A      0.080033
     74 H28B        7.3660    1.2450    5.8110 hc        1 74A      0.080033
     75 H29        14.9030   -0.0080    6.8380 hc        1 74A      0.069950
     76 H29A       13.9930    1.0010    5.6340 hc        1 74A      0.069950
     77 H30        13.0730   -3.4070    7.6610 hc        1 74A      0.069950
     78 H30A       14.4750   -2.2730    7.8570 hc        1 74A      0.069950
     79 H31        16.4330    0.9280    5.1300 hc        1 74A      0.064367
     80 H31A       15.4810    0.1590    3.7930 hc        1 74A      0.064367
     81 H31B       16.3780   -0.8770    4.9840 hc        1 74A      0.064367
     82 H32        13.9370   -3.3760   10.0040 hc        1 74A      0.064367
     83 H32A       12.2300   -2.7710    9.9430 hc        1 74A      0.064367
     84 H32B       13.6040   -1.6000   10.1320 hc        1 74A      0.064367
     85 H33        -0.4790    2.9090   -3.0600 ha        1 74A      0.151000
     86 H34        -3.1480    0.2610   -0.9240 ha        1 74A      0.151000
     87 H35        -2.7690    1.9890   -2.6870 ha        1 74A      0.152000
     88 H221        6.2690   -4.8890    3.2210 hn        1 74A      0.474800
     89 H41        11.9110   -0.2900    5.9560 hn        1 74A      0.448800
@<TRIPOS>BOND
     1    1    3 1   
     2    1    4 2   
     3    1   25 1   
     4    2   27 1   
     5    3   19 1   
     6    3   32 1   
     7    5    9 1   
     8    5   20 ar  
     9    5   23 ar  
    10    6   28 1   
    11    7   12 1   
    12    7   16 1   
    13    7   46 1   
    14    7   88 1   
    15    8    9 2   
    16    9   13 1   
    17   10   15 1   
    18   10   33 1   
    19   10   47 1   
    20   11   12 2   
    21   12   17 1   
    22   13   34 1   
    23   13   35 1   
    24   13   89 1   
    25   14   18 1   
    26   14   48 1   
    27   15   18 1   
    28   15   19 1   
    29   15   49 1   
    30   16   18 1   
    31   16   22 1   
    32   16   50 1   
    33   17   20 ar  
    34   17   24 ar  
    35   18   51 1   
    36   19   52 1   
    37   19   53 1   
    38   20   54 1   
    39   21   22 1   
    40   21   30 ar  
    41   21   31 ar  
    42   22   55 1   
    43   22   56 1   
    44   23   29 ar  
    45   23   57 1   
    46   24   29 ar  
    47   24   58 1   
    48   25   36 ar  
    49   25   37 ar  
    50   26   27 ar  
    51   26   28 ar  
    52   26   59 1   
    53   27   30 ar  
    54   28   31 ar  
    55   29   38 1   
    56   30   60 1   
    57   31   61 1   
    58   32   33 1   
    59   32   62 1   
    60   32   63 1   
    61   33   64 1   
    62   33   65 1   
    63   34   39 1   
    64   34   66 1   
    65   34   67 1   
    66   35   40 1   
    67   35   68 1   
    68   35   69 1   
    69   36   44 ar  
    70   36   70 1   
    71   37   43 ar  
    72   37   71 1   
    73   38   72 1   
    74   38   73 1   
    75   38   74 1   
    76   39   41 1   
    77   39   75 1   
    78   39   76 1   
    79   40   42 1   
    80   40   77 1   
    81   40   78 1   
    82   41   79 1   
    83   41   80 1   
    84   41   81 1   
    85   42   82 1   
    86   42   83 1   
    87   42   84 1   
    88   43   45 ar  
    89   43   85 1   
    90   44   45 ar  
    91   44   86 1   
    92   45   87 1   
@<TRIPOS>SUBSTRUCTURE
     1 74A         1 TEMP              0 ****  ****    0 ROOT
