@<TRIPOS>MOLECULE
74A
   89    92     1     0     0
SMALL
bcc


@<TRIPOS>ATOM
      1 C1          0.9600   -0.0620    0.7650 c         1 74A      0.670700
      2 F1          5.9850   -8.6900    3.2980 f         1 74A     -0.106900
      3 N1          2.2690    0.2440    0.3030 n         1 74A     -0.438800
      4 O1          0.8360   -0.6850    1.8390 o         1 74A     -0.604100
      5 C2         10.0750   -1.5080    5.2230 ca        1 74A     -0.182600
      6 F2          6.2690   -8.0510   -1.4160 f         1 74A     -0.106900
      7 N2          6.5580   -3.7420    2.6250 n4        1 74A     -0.675800
      8 O2         12.3470   -1.3530    4.4640 o         1 74A     -0.398100
      9 C3         11.5390   -1.4000    5.3830 c         1 74A      0.556700
     10 N3          4.2710   -1.7270   -0.5570 n3        1 74A     -0.801200
     11 O3          8.4540   -2.9510    1.5350 o         1 74A     -0.401100
     12 C4          7.8290   -2.9460    2.5880 c         1 74A      0.558700
     13 N4         12.0890   -1.3650    6.7910 n4        1 74A     -0.588200
     14 O4          4.4680   -2.0050    3.1770 oh        1 74A     -0.647800
     15 C5          3.8570   -1.5920    0.8370 c3        1 74A      0.089500
     16 C6          5.5800   -3.3630    1.5260 c3        1 74A      0.119500
     17 C7          8.2410   -2.2690    3.8340 ca        1 74A     -0.182600
     18 C8          4.9520   -1.9790    1.8440 c3        1 74A      0.137100
     19 C9          3.3610   -0.1510    1.1670 c3        1 74A      0.039000
     20 C10         9.6190   -2.1800    4.0790 ca        1 74A     -0.004000
     21 C11         5.1010   -5.8150    1.2230 ca        1 74A     -0.091300
     22 C12         4.5130   -4.4550    1.3760 c3        1 74A     -0.063100
     23 C13         9.1600   -0.9070    6.0960 ca        1 74A     -0.056000
     24 C14         7.3270   -1.6670    4.7050 ca        1 74A     -0.050000
     25 C15        -0.2070    0.4260   -0.0050 ca        1 74A     -0.162600
     26 C16         6.1470   -8.4160    0.9350 ca        1 74A     -0.186000
     27 C17         5.8060   -7.9190    2.2040 ca        1 74A      0.182400
     28 C18         5.9530   -7.5930   -0.1870 ca        1 74A      0.182400
     29 C19         7.7850   -0.9830    5.8400 ca        1 74A     -0.042300
     30 C20         5.2850   -6.6190    2.3530 ca        1 74A     -0.205500
     31 C21         5.4330   -6.2890   -0.0450 ca        1 74A     -0.205500
     32 C22         2.5760    0.0840   -1.1060 c3        1 74A      0.032000
     33 C23         3.2160   -1.2820   -1.4570 c3        1 74A      0.113800
     34 C24        12.6870   -2.6960    7.1610 c3        1 74A      0.108300
     35 C25        13.0590   -0.2250    6.9360 c3        1 74A      0.108300
     36 C26        -1.3770   -0.3450    0.0170 ca        1 74A     -0.084000
     37 C27        -0.1860    1.6480   -0.6890 ca        1 74A     -0.084000
     38 C28         6.8200   -0.3180    6.7460 c3        1 74A     -0.082800
     39 C29        13.9960   -3.0470    6.4650 c3        1 74A     -0.100900
     40 C30        13.5390   -0.0100    8.3660 c3        1 74A     -0.100900
     41 C31        14.3550   -4.4790    6.7770 c3        1 74A     -0.104100
     42 C32        14.3710    1.2490    8.4230 c3        1 74A     -0.104100
     43 C33        -1.3270    2.0850   -1.3590 ca        1 74A     -0.134500
     44 C34        -2.5110    0.0950   -0.6630 ca        1 74A     -0.134500
     45 C35        -2.4870    1.3090   -1.3510 ca        1 74A     -0.085000
     46 HN2         6.7900   -4.7440    2.5080 hn        1 74A      0.473800
     47 HN3         5.0980   -1.1750   -0.7120 hn        1 74A      0.353800
     48 HO4         3.4980   -2.0330    3.1710 ho        1 74A      0.463000
     49 H5          2.9820   -2.2980    0.9920 h1        1 74A      0.092700
     50 H6          6.1790   -3.2880    0.5680 hx        1 74A      0.138700
     51 H8          5.7710   -1.2000    1.8390 h1        1 74A      0.071700
     52 H9          4.2040    0.5800    1.0140 h1        1 74A      0.074200
     53 H9A         3.0340   -0.1010    2.2420 h1        1 74A      0.074200
     54 H10        10.3420   -2.6160    3.3640 ha        1 74A      0.190000
     55 H12         3.9120   -4.2050    0.4550 hc        1 74A      0.105700
     56 H12A        3.8140   -4.4240    2.2550 hc        1 74A      0.105700
     57 H13         9.4890   -0.3310    6.9770 ha        1 74A      0.155000
     58 H14         6.2370   -1.6790    4.5030 ha        1 74A      0.189000
     59 H16         6.5410   -9.4390    0.8200 ha        1 74A      0.193000
     60 H20         4.9610   -6.2840    3.3490 ha        1 74A      0.159000
     61 H21         5.2750   -5.6710   -0.9430 ha        1 74A      0.159000
     62 H22         3.2910    0.9100   -1.3870 h1        1 74A      0.081200
     63 H22A        1.6400    0.2080   -1.7190 h1        1 74A      0.081200
     64 H23         3.6430   -1.2160   -2.4960 h1        1 74A      0.079700
     65 H23A        2.4170   -2.0760   -1.4580 h1        1 74A      0.079700
     66 H24        12.8560   -2.6760    8.2780 hx        1 74A      0.105950
     67 H24A       11.9100   -3.4800    6.9280 hx        1 74A      0.105950
     68 H25        12.5330    0.7030    6.5670 hx        1 74A      0.105950
     69 H25A       13.9350   -0.4300    6.2540 hx        1 74A      0.105950
     70 H26        -1.3970   -1.2890    0.5840 ha        1 74A      0.146500
     71 H27         0.7190    2.2750   -0.6870 ha        1 74A      0.146500
     72 H28         5.8270   -0.8340    6.7300 hc        1 74A      0.080033
     73 H28A        7.1940   -0.3090    7.8010 hc        1 74A      0.080033
     74 H28B        6.6640    0.7440    6.4210 hc        1 74A      0.080033
     75 H29        14.8160   -2.3690    6.8250 hc        1 74A      0.069950
     76 H29A       13.9060   -2.9110    5.3540 hc        1 74A      0.069950
     77 H30        12.6680    0.0840    9.0670 hc        1 74A      0.069950
     78 H30A       14.1600   -0.8830    8.7010 hc        1 74A      0.069950
     79 H31        13.5810   -5.1830    6.3860 hc        1 74A      0.064200
     80 H31A       14.4570   -4.6360    7.8790 hc        1 74A      0.064200
     81 H31B       15.3330   -4.7290    6.2960 hc        1 74A      0.064200
     82 H32        14.7470    1.3990    9.4660 hc        1 74A      0.064200
     83 H32A       13.7670    2.1440    8.1360 hc        1 74A      0.064200
     84 H32B       15.2520    1.1790    7.7400 hc        1 74A      0.064200
     85 H33        -1.3140    3.0490   -1.8910 ha        1 74A      0.151000
     86 H34        -3.4290   -0.5130   -0.6480 ha        1 74A      0.151000
     87 H35        -3.3870    1.6580   -1.8830 ha        1 74A      0.152000
     88 H221        6.0810   -3.6160    3.5270 hn        1 74A      0.473800
     89 H41        11.3130   -1.2020    7.4440 hn        1 74A      0.445800
@<TRIPOS>BOND
     1    1    3 1   
     2    1    4 2   
     3    1   25 1   
     4    2   27 1   
     5    3   19 1   
     6    3   32 1   
     7    5    9 1   
     8    5   20 ar  
     9    5   23 ar  
    10    6   28 1   
    11    7   12 1   
    12    7   16 1   
    13    7   46 1   
    14    7   88 1   
    15    8    9 2   
    16    9   13 1   
    17   10   15 1   
    18   10   33 1   
    19   10   47 1   
    20   11   12 2   
    21   12   17 1   
    22   13   34 1   
    23   13   35 1   
    24   13   89 1   
    25   14   18 1   
    26   14   48 1   
    27   15   18 1   
    28   15   19 1   
    29   15   49 1   
    30   16   18 1   
    31   16   22 1   
    32   16   50 1   
    33   17   20 ar  
    34   17   24 ar  
    35   18   51 1   
    36   19   52 1   
    37   19   53 1   
    38   20   54 1   
    39   21   22 1   
    40   21   30 ar  
    41   21   31 ar  
    42   22   55 1   
    43   22   56 1   
    44   23   29 ar  
    45   23   57 1   
    46   24   29 ar  
    47   24   58 1   
    48   25   36 ar  
    49   25   37 ar  
    50   26   27 ar  
    51   26   28 ar  
    52   26   59 1   
    53   27   30 ar  
    54   28   31 ar  
    55   29   38 1   
    56   30   60 1   
    57   31   61 1   
    58   32   33 1   
    59   32   62 1   
    60   32   63 1   
    61   33   64 1   
    62   33   65 1   
    63   34   39 1   
    64   34   66 1   
    65   34   67 1   
    66   35   40 1   
    67   35   68 1   
    68   35   69 1   
    69   36   44 ar  
    70   36   70 1   
    71   37   43 ar  
    72   37   71 1   
    73   38   72 1   
    74   38   73 1   
    75   38   74 1   
    76   39   41 1   
    77   39   75 1   
    78   39   76 1   
    79   40   42 1   
    80   40   77 1   
    81   40   78 1   
    82   41   79 1   
    83   41   80 1   
    84   41   81 1   
    85   42   82 1   
    86   42   83 1   
    87   42   84 1   
    88   43   45 ar  
    89   43   85 1   
    90   44   45 ar  
    91   44   86 1   
    92   45   87 1   
@<TRIPOS>SUBSTRUCTURE
     1 74A         1 TEMP              0 ****  ****    0 ROOT
