@<TRIPOS>MOLECULE
74A
   87    83     1     0     0
SMALL
bcc


@<TRIPOS>ATOM
      1 C1         -5.0690   -0.4840   -3.4680 c1        1 74A      0.340000
      2 F1          0.1120   -8.5000   -0.1300 f         1 74A     -0.103000
      3 N1         -3.6940   -0.1940   -3.0170 n2        1 74A     -0.314000
      4 O1         -5.8780   -0.9630   -2.6920 o         1 74A     -0.354000
      5 C2          3.3940    0.9520    3.1830 c1        1 74A     -0.107000
      6 F2          0.4360   -5.9640   -4.0760 f         1 74A     -0.097000
      7 N2          0.3760   -2.3660    0.9540 n         1 74A     -0.374000
      8 O2          5.2130    1.8600    1.8600 o         1 74A     -0.351000
      9 C3          4.2720    2.1080    2.6350 c1        1 74A      0.345000
     10 N3         -0.9130   -0.7300   -2.5320 n3        1 74A     -0.305000
     11 O3          1.6160   -0.6500   -0.0730 o         1 74A     -0.377000
     12 C4          1.3400   -1.2440    0.9730 c2        1 74A      0.359000
     13 N4          4.0130    3.4670    3.0430 n3        1 74A     -0.331000
     14 O4         -2.4850   -1.4850    0.6390 oh        1 74A     -0.330000
     15 C5         -1.9250   -1.2900   -1.6790 c3        1 74A     -0.075000
     16 C6         -0.4600   -2.5540   -0.1480 c3        1 74A      0.037000
     17 C7          2.0530   -0.8690    2.2760 c2        1 74A     -0.118000
     18 C8         -1.3950   -1.3530   -0.2870 c3        1 74A      0.021000
     19 C9         -3.2340   -0.4500   -1.6910 c3        1 74A     -0.042000
     20 C10         2.6500    0.4120    2.1350 c2        1 74A     -0.058000
     21 C11        -0.6340   -4.9970   -0.6840 c1        1 74A     -0.018000
     22 C12        -1.2890   -3.8290    0.0570 c2        1 74A     -0.138000
     23 C13         3.5530    0.2290    4.3800 c2        1 74A     -0.078000
     24 C14         2.2100   -1.5870    3.4640 c1        1 74A     -0.096000
     25 C15        -5.5110   -0.0820   -4.8830 c2        1 74A     -0.114000
     26 C16         0.3900   -7.1860   -2.0680 c1        1 74A     -0.209000
     27 C17         0.0610   -7.3030   -0.7270 c1        1 74A      0.116000
     28 C18         0.2070   -5.9620   -2.7310 c2        1 74A      0.126000
     29 C19         2.9600   -1.0410    4.5200 c1        1 74A     -0.075000
     30 C20        -0.4520   -6.2040   -0.0340 c2        1 74A     -0.190000
     31 C21        -0.3020   -4.8730   -2.0430 c2        1 74A     -0.174000
     32 C22        -2.6970    0.3600   -3.8740 c3        1 74A     -0.035000
     33 C23        -1.3980   -0.4690   -3.8710 c3        1 74A     -0.094000
     34 C24         3.6060    4.4390    2.0670 c3        1 74A     -0.025500
     35 C25         4.3420    3.8870    4.3970 c3        1 74A     -0.025500
     36 C26        -6.2580    1.1040   -4.8350 c2        1 74A     -0.102000
     37 C27        -5.3000   -0.7260   -6.1030 c1        1 74A     -0.087000
     38 C28         2.8500   -1.7190    5.9360 c3        1 74A     -0.182000
     39 C29         2.1170    4.6200    2.1240 c3        1 74A     -0.180000
     40 C30         4.8280    5.3470    4.3900 c3        1 74A     -0.180000
     41 C31         1.6730    5.5050    0.9570 c3        1 74A     -0.211000
     42 C32         4.2580    6.0660    5.5920 c3        1 74A     -0.211000
     43 C33        -5.8360   -0.1890   -7.2810 c1        1 74A     -0.123500
     44 C34        -6.7920    1.6410   -6.0060 c1        1 74A     -0.137000
     45 C35        -6.5820    0.9940   -7.2330 c1        1 74A     -0.123500
     46 HN2         0.3470   -2.9400    1.6370 hn        1 74A      0.227000
     47 HN3        -0.1840   -1.3160   -2.5750 hn        1 74A      0.188000
     48 HO4        -2.4180   -0.8330    1.2860 ho        1 74A      0.210000
     49 H5         -2.1260   -2.1910   -1.9800 h1        1 74A      0.082000
     50 H6          0.0750   -2.6420   -0.9470 h1        1 74A      0.131000
     51 H8         -0.8990   -0.5330   -0.0930 h1        1 74A      0.088000
     52 H9         -3.9280   -0.9310   -1.1980 h1        1 74A      0.106500
     53 H9A        -3.0670    0.3820   -1.2570 h1        1 74A      0.106500
     54 H10         2.6150    0.8790    1.2660 ha        1 74A      0.162000
     55 H12        -2.1700   -3.6940   -0.2770 ha        1 74A      0.114500
     56 H12A       -1.3310   -4.0370    1.0150 ha        1 74A      0.114500
     57 H13         4.0690    0.6040    5.1070 ha        1 74A      0.148000
     58 H14         1.7910   -2.4770    3.5630 ha        1 74A      0.140000
     59 H16         0.7120   -7.9740   -2.5680 ha        1 74A      0.166000
     60 H20        -0.7010   -6.2940    0.9150 ha        1 74A      0.148000
     61 H21        -0.3860   -4.0030   -2.4920 ha        1 74A      0.159000
     62 H22        -3.0680    0.3970   -4.8440 h1        1 74A      0.100500
     63 H22A       -2.4860    1.3020   -3.5660 h1        1 74A      0.100500
     64 H23        -1.5610   -1.3120   -4.3170 h1        1 74A      0.079500
     65 H23A       -0.6830    0.0420   -4.3830 h1        1 74A      0.079500
     66 H24         4.0350    5.2710    2.2480 h1        1 74A      0.095750
     67 H24A        3.8500    4.1400    1.2100 h1        1 74A      0.095750
     68 H25         5.0980    3.2710    4.7780 h1        1 74A      0.095750
     69 H25A        3.5370    3.8120    4.9690 h1        1 74A      0.095750
     70 H26        -6.4050    1.5560   -3.9760 ha        1 74A      0.142000
     71 H27        -4.7790   -1.5520   -6.1350 ha        1 74A      0.149000
     72 H28         2.4370   -2.5840    5.8450 hc        1 74A      0.089333
     73 H28A        3.7370   -1.8220    6.3180 hc        1 74A      0.089333
     74 H28B        2.3190   -1.1740    6.5100 hc        1 74A      0.089333
     75 H29         1.6880    3.7660    2.0600 hc        1 74A      0.085750
     76 H29A        1.8690    5.0510    2.9760 hc        1 74A      0.085750
     77 H30         5.8330    5.3670    4.4340 hc        1 74A      0.085750
     78 H30A        4.5300    5.7870    3.5770 hc        1 74A      0.085750
     79 H31         2.0580    5.1630    0.1260 hc        1 74A      0.075333
     80 H31A        0.7180    5.4970    0.8950 hc        1 74A      0.075333
     81 H31B        1.9830    6.4220    1.1060 hc        1 74A      0.075333
     82 H32         4.9690    6.5910    6.0270 hc        1 74A      0.075333
     83 H32A        3.5300    6.6720    5.2990 hc        1 74A      0.075333
     84 H32B        3.9130    5.4310    6.2070 hc        1 74A      0.075333
     85 H33        -5.6850   -0.6470   -8.1510 ha        1 74A      0.137500
     86 H34        -7.3000    2.4490   -5.9720 ha        1 74A      0.137000
     87 H35        -6.9600    1.3720   -8.0620 ha        1 74A      0.137500
@<TRIPOS>BOND
     1    1    4 1   
     2    1   25 1   
     3    2   27 1   
     4    3   19 1   
     5    3   32 1   
     6    5   20 1   
     7    5   23 1   
     8    6   28 1   
     9    7   12 1   
    10    7   16 1   
    11    7   46 1   
    12    8    9 1   
    13    9   13 1   
    14   10   15 1   
    15   10   33 1   
    16   10   47 1   
    17   11   12 1   
    18   12   17 1   
    19   13   34 1   
    20   13   35 1   
    21   14   18 1   
    22   14   48 1   
    23   15   18 1   
    24   15   19 1   
    25   15   49 1   
    26   16   18 1   
    27   16   22 1   
    28   16   50 1   
    29   17   20 1   
    30   17   24 1   
    31   18   51 1   
    32   19   52 1   
    33   19   53 1   
    34   20   54 1   
    35   21   30 1   
    36   21   31 1   
    37   22   55 1   
    38   22   56 1   
    39   23   29 1   
    40   23   57 1   
    41   24   58 1   
    42   25   36 1   
    43   25   37 1   
    44   26   28 1   
    45   26   59 1   
    46   27   30 1   
    47   28   31 1   
    48   29   38 1   
    49   30   60 1   
    50   31   61 1   
    51   32   33 1   
    52   32   62 1   
    53   32   63 1   
    54   33   64 1   
    55   33   65 1   
    56   34   39 1   
    57   34   66 1   
    58   34   67 1   
    59   35   40 1   
    60   35   68 1   
    61   35   69 1   
    62   36   44 1   
    63   36   70 1   
    64   37   71 1   
    65   38   72 1   
    66   38   73 1   
    67   38   74 1   
    68   39   41 1   
    69   39   75 1   
    70   39   76 1   
    71   40   42 1   
    72   40   77 1   
    73   40   78 1   
    74   41   79 1   
    75   41   80 1   
    76   41   81 1   
    77   42   82 1   
    78   42   83 1   
    79   42   84 1   
    80   43   45 1   
    81   43   85 1   
    82   44   86 1   
    83   45   87 1   
@<TRIPOS>SUBSTRUCTURE
     1 74A         1 TEMP              0 ****  ****    0 ROOT
