@<TRIPOS>MOLECULE
74A
   87    90     1     0     0
SMALL
bcc


@<TRIPOS>ATOM
      1 C1         -6.5420   -1.4840   -0.1630 c         1 74A      0.665700
      2 F1          1.6560    4.8430   -3.4500 f         1 74A     -0.134900
      3 N1         -5.3800   -1.5610    0.6120 n         1 74A     -0.453800
      4 O1         -6.4830   -1.6080   -1.4020 o         1 74A     -0.591100
      5 C2          5.1280   -0.9730   -0.8940 ca        1 74A     -0.126600
      6 F2          0.6110    5.2420    1.1810 f         1 74A     -0.134900
      7 N2          0.4520   -0.0230   -1.0840 n         1 74A     -0.554900
      8 O2          7.1080    0.3260   -1.1490 o         1 74A     -0.595100
      9 C3          6.4490   -0.4510   -0.4290 c         1 74A      0.671700
     10 N3         -3.1280    0.1920    1.2980 n3        1 74A     -0.800200
     11 O3          1.3570   -0.2700    1.0110 o         1 74A     -0.609100
     12 C4          1.4660   -0.4020   -0.2260 c         1 74A      0.674700
     13 N4          6.9230   -0.8390    0.8160 n         1 74A     -0.470800
     14 O4         -2.0370   -1.2480   -1.9650 oh        1 74A     -0.595800
     15 C5         -3.2360   -0.4130   -0.0230 c3        1 74A      0.109500
     16 C6         -0.8430    0.4040   -0.6050 c3        1 74A      0.081700
     17 C7          2.7150   -0.9310   -0.8460 ca        1 74A     -0.139600
     18 C8         -1.8660   -0.7680   -0.6430 c3        1 74A      0.117100
     19 C9         -4.1010   -1.7080   -0.0500 c3        1 74A      0.043000
     20 C10         3.9410   -0.4800   -0.3470 ca        1 74A     -0.060000
     21 C11        -0.4880    2.7970   -1.3080 ca        1 74A     -0.022300
     22 C12        -1.3790    1.6080   -1.4010 c3        1 74A     -0.051100
     23 C13         5.0930   -1.9080   -1.9310 ca        1 74A     -0.079000
     24 C14         2.6760   -1.8740   -1.8770 ca        1 74A     -0.098000
     25 C15        -7.8570   -1.3300    0.5230 ca        1 74A     -0.137600
     26 C16         1.1620    5.0770   -1.1310 ca        1 74A     -0.208000
     27 C17         1.0070    4.3960   -2.3490 ca        1 74A      0.155400
     28 C18         0.4760    4.5970   -0.0020 ca        1 74A      0.155400
     29 C19         3.8650   -2.3680   -2.4220 ca        1 74A     -0.083300
     30 C20         0.1840    3.2590   -2.4420 ca        1 74A     -0.177500
     31 C21        -0.3480    3.4620   -0.0870 ca        1 74A     -0.177500
     32 C22        -5.3010   -0.9520    1.9210 c3        1 74A      0.044000
     33 C23        -4.4130    0.3140    1.9540 c3        1 74A      0.130800
     34 C24         8.2080   -0.3620    1.2780 c3        1 74A      0.090000
     35 C25         6.2500   -1.8190    1.6330 c3        1 74A      0.090000
     36 C26        -8.7530   -0.3680    0.0430 ca        1 74A     -0.093000
     37 C27        -8.2290   -2.1710    1.5770 ca        1 74A     -0.093000
     38 C28         3.8310   -3.3770   -3.5060 c3        1 74A     -0.056800
     39 C29         8.1280    0.7470    2.3300 c3        1 74A     -0.100900
     40 C30         6.6790   -3.2680    1.3850 c3        1 74A     -0.100900
     41 C31         9.5150    1.1510    2.7590 c3        1 74A     -0.093100
     42 C32         5.9370   -4.1930    2.3150 c3        1 74A     -0.093100
     43 C33        -9.4910   -2.0400    2.1560 ca        1 74A     -0.137000
     44 C34       -10.0090   -0.2360    0.6330 ca        1 74A     -0.137000
     45 C35       -10.3790   -1.0700    1.6880 ca        1 74A     -0.110000
     46 HN2         0.5180   -0.2550   -2.0470 hn        1 74A      0.316500
     47 HN3        -2.4950   -0.3440    1.8660 hn        1 74A      0.361800
     48 HO4        -2.5540   -0.5940   -2.4530 ho        1 74A      0.405000
     49 H5         -3.7440    0.3490   -0.6860 h1        1 74A      0.067700
     50 H6         -0.7160    0.7220    0.4750 h1        1 74A      0.109700
     51 H8         -1.4250   -1.6500   -0.0910 h1        1 74A      0.084700
     52 H9         -3.5420   -2.5330    0.4790 h1        1 74A      0.078200
     53 H9A        -4.2500   -2.0140   -1.1240 h1        1 74A      0.078200
     54 H10         3.9600    0.2560    0.4730 ha        1 74A      0.163000
     55 H12        -1.5260    1.3200   -2.4770 hc        1 74A      0.061200
     56 H12A       -2.3830    1.8800   -0.9760 hc        1 74A      0.061200
     57 H13         6.0340   -2.2770   -2.3690 ha        1 74A      0.148000
     58 H14         1.7120   -2.2450   -2.2590 ha        1 74A      0.141000
     59 H16         1.8070    5.9630   -1.0610 ha        1 74A      0.165000
     60 H20         0.0820    2.7440   -3.4080 ha        1 74A      0.155500
     61 H21        -0.8740    3.1020    0.8100 ha        1 74A      0.155500
     62 H22        -6.3250   -0.6760    2.2940 h1        1 74A      0.061200
     63 H22A       -4.8690   -1.7220    2.6240 h1        1 74A      0.061200
     64 H23        -4.2420    0.5930    3.0300 h1        1 74A      0.062700
     65 H23A       -4.9660    1.1610    1.4570 h1        1 74A      0.062700
     66 H24         8.7740   -1.2360    1.7160 h1        1 74A      0.057700
     67 H24A        8.7930    0.0250    0.3940 h1        1 74A      0.057700
     68 H25         6.4530   -1.5650    2.7140 h1        1 74A      0.057700
     69 H25A        5.1370   -1.7410    1.4700 h1        1 74A      0.057700
     70 H26        -8.4640    0.2700   -0.8070 ha        1 74A      0.146000
     71 H27        -7.5310   -2.9400    1.9420 ha        1 74A      0.146000
     72 H28         3.9440   -4.4040   -3.0750 hc        1 74A      0.049367
     73 H28A        2.8640   -3.3370   -4.0640 hc        1 74A      0.049367
     74 H28B        4.6650   -3.2090   -4.2320 hc        1 74A      0.049367
     75 H29         7.5890    1.6330    1.9040 hc        1 74A      0.046200
     76 H29A        7.5440    0.3950    3.2200 hc        1 74A      0.046200
     77 H30         6.4670   -3.5490    0.3200 hc        1 74A      0.046200
     78 H30A        7.7830   -3.3750    1.5460 hc        1 74A      0.046200
     79 H31         9.4580    1.9620    3.5250 hc        1 74A      0.036367
     80 H31A       10.0620    0.2850    3.2030 hc        1 74A      0.036367
     81 H31B       10.1040    1.5300    1.8880 hc        1 74A      0.036367
     82 H32         6.1560   -3.9430    3.3810 hc        1 74A      0.036367
     83 H32A        4.8340   -4.1150    2.1550 hc        1 74A      0.036367
     84 H32B        6.2450   -5.2510    2.1310 hc        1 74A      0.036367
     85 H33        -9.7860   -2.7050    2.9810 ha        1 74A      0.138500
     86 H34       -10.7120    0.5230    0.2580 ha        1 74A      0.138500
     87 H35       -11.3730   -0.9680    2.1480 ha        1 74A      0.136000
@<TRIPOS>BOND
     1    1    3 1   
     2    1    4 2   
     3    1   25 1   
     4    2   27 1   
     5    3   19 1   
     6    3   32 1   
     7    5    9 1   
     8    5   20 ar  
     9    5   23 ar  
    10    6   28 1   
    11    7   12 1   
    12    7   16 1   
    13    7   46 1   
    14    8    9 2   
    15    9   13 1   
    16   10   15 1   
    17   10   33 1   
    18   10   47 1   
    19   11   12 2   
    20   12   17 1   
    21   13   34 1   
    22   13   35 1   
    23   14   18 1   
    24   14   48 1   
    25   15   18 1   
    26   15   19 1   
    27   15   49 1   
    28   16   18 1   
    29   16   22 1   
    30   16   50 1   
    31   17   20 ar  
    32   17   24 ar  
    33   18   51 1   
    34   19   52 1   
    35   19   53 1   
    36   20   54 1   
    37   21   22 1   
    38   21   30 ar  
    39   21   31 ar  
    40   22   55 1   
    41   22   56 1   
    42   23   29 ar  
    43   23   57 1   
    44   24   29 ar  
    45   24   58 1   
    46   25   36 ar  
    47   25   37 ar  
    48   26   27 ar  
    49   26   28 ar  
    50   26   59 1   
    51   27   30 ar  
    52   28   31 ar  
    53   29   38 1   
    54   30   60 1   
    55   31   61 1   
    56   32   33 1   
    57   32   62 1   
    58   32   63 1   
    59   33   64 1   
    60   33   65 1   
    61   34   39 1   
    62   34   66 1   
    63   34   67 1   
    64   35   40 1   
    65   35   68 1   
    66   35   69 1   
    67   36   44 ar  
    68   36   70 1   
    69   37   43 ar  
    70   37   71 1   
    71   38   72 1   
    72   38   73 1   
    73   38   74 1   
    74   39   41 1   
    75   39   75 1   
    76   39   76 1   
    77   40   42 1   
    78   40   77 1   
    79   40   78 1   
    80   41   79 1   
    81   41   80 1   
    82   41   81 1   
    83   42   82 1   
    84   42   83 1   
    85   42   84 1   
    86   43   45 ar  
    87   43   85 1   
    88   44   45 ar  
    89   44   86 1   
    90   45   87 1   
@<TRIPOS>SUBSTRUCTURE
     1 74A         1 TEMP              0 ****  ****    0 ROOT
