@<TRIPOS>MOLECULE
74M
   61    62     1     0     0
SMALL
bcc


@<TRIPOS>ATOM
      1 C2         -1.0500   -0.1420    1.0740 cx        1 74M     -0.007900
      2 O1         -0.0040   -0.3560    0.1220 os        1 74M     -0.320600
      3 C3          0.3850   -0.1860    1.4930 cx        1 74M      0.021100
      4 C4          0.9800   -1.4190    2.1120 c         1 74M      0.548100
      5 O4          1.6680   -2.2430    1.5360 o         1 74M     -0.342100
      6 N1          0.7340   -1.5900    3.5810 n4        1 74M     -0.660800
      7 C5          0.3530   -3.0020    3.9630 c3        1 74M      0.056500
      8 C6         -1.0130   -3.3680    3.3280 c         1 74M      0.678100
      9 O5         -1.7140   -2.4380    2.8510 o         1 74M     -0.691100
     10 C14         0.3350   -3.1700    5.5010 c3        1 74M     -0.089700
     11 C16        -0.1640   -1.9730    6.2980 c3        1 74M     -0.100400
     12 C15         1.7240   -3.5580    5.9690 c3        1 74M     -0.119100
     13 C17        -1.5930   -1.5950    6.0160 c3        1 74M     -0.123100
     14 N2         -1.3700   -4.6740    3.2540 n         1 74M     -0.414800
     15 C7         -2.7370   -5.0960    2.9350 c3        1 74M      0.056700
     16 C8         -3.7350   -4.6960    4.0170 c         1 74M      0.617100
     17 O6         -3.5130   -4.0840    5.0640 o         1 74M     -0.545000
     18 C20        -2.6930   -6.6330    2.7800 c3        1 74M     -0.081400
     19 C19        -1.3390   -7.0850    3.3140 c3        1 74M     -0.091400
     20 C18        -0.5140   -5.8130    3.5630 c3        1 74M      0.075000
     21 O7         -5.0000   -5.0790    3.7120 os        1 74M     -0.418900
     22 C9         -6.0180   -4.7860    4.6810 c3        1 74M      0.123700
     23 N3         -2.1420    1.5600   -0.4410 n4        1 74M     -0.666800
     24 C11        -2.7120    2.9450   -0.5710 c3        1 74M      0.106800
     25 C12        -4.1930    3.0230   -0.2190 c3        1 74M     -0.104400
     26 C13        -4.6820    4.4320   -0.4590 c3        1 74M     -0.104100
     27 C10        -1.7700    1.1700    0.9620 c         1 74M      0.535100
     28 O2         -2.0930    1.8850    1.8940 o         1 74M     -0.351100
     29 H2         -1.7390   -1.0070    1.2620 h1        1 74M      0.211700
     30 H3          0.9740    0.7360    1.7030 h1        1 74M      0.166700
     31 HN1         1.5850   -1.3470    4.1090 hn        1 74M      0.482800
     32 H5          1.1530   -3.6790    3.5250 hx        1 74M      0.134700
     33 H14        -0.3740   -4.0240    5.7210 hc        1 74M      0.119700
     34 H161        0.5160   -1.0900    6.1670 hc        1 74M      0.060700
     35 H162       -0.0860   -2.2540    7.3880 hc        1 74M      0.060700
     36 H151        1.7110   -3.7530    7.0710 hc        1 74M      0.062033
     37 H152        2.0740   -4.4890    5.4610 hc        1 74M      0.062033
     38 H153        2.4610   -2.7410    5.7730 hc        1 74M      0.062033
     39 H171       -2.2770   -2.4680    6.1820 hc        1 74M      0.059033
     40 H172       -1.9100   -0.7720    6.7050 hc        1 74M      0.059033
     41 H173       -1.7400   -1.2470    4.9650 hc        1 74M      0.059033
     42 H7         -3.0660   -4.5950    1.9780 h1        1 74M      0.107700
     43 H201       -3.5380   -7.1080    3.3390 hc        1 74M      0.091700
     44 H202       -2.8070   -6.8990    1.6990 hc        1 74M      0.091700
     45 H191       -0.8180   -7.7480    2.5780 hc        1 74M      0.085700
     46 H192       -1.4570   -7.6590    4.2680 hc        1 74M      0.085700
     47 H181        0.3890   -5.7850    2.8900 h1        1 74M      0.062200
     48 H182       -0.1660   -5.7690    4.6320 h1        1 74M      0.062200
     49 H91        -6.9400   -5.2180    4.2180 h1        1 74M      0.067700
     50 H92        -5.7700   -5.2810    5.6510 h1        1 74M      0.067700
     51 H93        -6.1000   -3.6820    4.8170 h1        1 74M      0.067700
     52 HN3        -2.8370    0.8820   -0.7880 hn        1 74M      0.476800
     53 H111       -2.1200    3.6310    0.1010 hx        1 74M      0.119700
     54 H112       -2.5580    3.2580   -1.6460 hx        1 74M      0.119700
     55 H121       -4.3470    2.7500    0.8600 hc        1 74M      0.070700
     56 H122       -4.7870    2.3090   -0.8490 hc        1 74M      0.070700
     57 H131       -4.1250    5.1640    0.1750 hc        1 74M      0.069367
     58 H132       -4.5640    4.7210   -1.5310 hc        1 74M      0.069367
     59 H133       -5.7680    4.4950   -0.1960 hc        1 74M      0.069367
     60 H12        -0.0410   -0.9740    3.8790 hn        1 74M      0.482800
     61 H32        -1.2980    1.4810   -1.0260 hn        1 74M      0.476800
@<TRIPOS>BOND
     1    1    2 1   
     2    1    3 1   
     3    1   27 1   
     4    1   29 1   
     5    2    3 1   
     6    3    4 1   
     7    3   30 1   
     8    4    5 2   
     9    4    6 1   
    10    6    7 1   
    11    6   31 1   
    12    6   60 1   
    13    7    8 1   
    14    7   10 1   
    15    7   32 1   
    16    8    9 2   
    17    8   14 1   
    18   10   11 1   
    19   10   12 1   
    20   10   33 1   
    21   11   13 1   
    22   11   34 1   
    23   11   35 1   
    24   12   36 1   
    25   12   37 1   
    26   12   38 1   
    27   13   39 1   
    28   13   40 1   
    29   13   41 1   
    30   14   15 1   
    31   14   20 1   
    32   15   16 1   
    33   15   18 1   
    34   15   42 1   
    35   16   17 2   
    36   16   21 1   
    37   18   19 1   
    38   18   43 1   
    39   18   44 1   
    40   19   20 1   
    41   19   45 1   
    42   19   46 1   
    43   20   47 1   
    44   20   48 1   
    45   21   22 1   
    46   22   49 1   
    47   22   50 1   
    48   22   51 1   
    49   23   24 1   
    50   23   27 1   
    51   23   52 1   
    52   23   61 1   
    53   24   25 1   
    54   24   53 1   
    55   24   54 1   
    56   25   26 1   
    57   25   55 1   
    58   25   56 1   
    59   26   57 1   
    60   26   58 1   
    61   26   59 1   
    62   27   28 2   
@<TRIPOS>SUBSTRUCTURE
     1 74M         1 TEMP              0 ****  ****    0 ROOT
