@<TRIPOS>MOLECULE
74M
   59    60     1     0     0
SMALL
bcc


@<TRIPOS>ATOM
      1 C2         -0.6350   -1.6970   -2.3320 cx        1 74M      0.006100
      2 O1          0.1600   -1.8320   -1.9290 os        1 74M     -0.397600
      3 C3         -0.5960   -1.8040   -1.4390 cx        1 74M      0.011100
      4 C4         -0.7380   -1.2390   -0.9710 c         1 74M      0.670100
      5 O4         -1.7190   -0.5310   -1.1470 o         1 74M     -0.601100
      6 N1          0.1140   -1.0260    0.1900 n         1 74M     -0.544900
      7 C5         -0.2730   -0.0880    1.1980 c3        1 74M      0.048700
      8 C6          0.6030    1.1550    1.0990 c         1 74M      0.645100
      9 O5          1.7330    1.0700    0.6480 o         1 74M     -0.607100
     10 C14        -0.1040   -0.7160    2.5630 c3        1 74M     -0.065700
     11 C16         1.0820   -1.6710    2.5410 c3        1 74M     -0.092400
     12 C15        -1.3640   -1.4820    2.9270 c3        1 74M     -0.094100
     13 C17         1.4770   -2.0310    3.9830 c3        1 74M     -0.090100
     14 N2          0.0590    2.4570    1.4560 n         1 74M     -0.456800
     15 C7          0.8150    3.8900    1.3190 c3        1 74M      0.060700
     16 C8          1.4430    4.2420    2.6180 c         1 74M      0.621100
     17 O6          0.9140    3.9040    3.6620 o         1 74M     -0.527000
     18 C20        -0.1820    4.7230    0.9410 c3        1 74M     -0.081400
     19 C19        -1.4700    4.1100    1.4930 c3        1 74M     -0.092400
     20 C18        -1.1130    2.6920    1.9400 c3        1 74M      0.080000
     21 O7          2.6240    5.0280    2.6440 os        1 74M     -0.442900
     22 C9          2.9390    5.5510    3.9260 c3        1 74M      0.126700
     23 N3         -0.3090   -2.5530   -4.0300 n         1 74M     -0.549900
     24 C11        -0.9500   -3.4830   -4.9300 c3        1 74M      0.080000
     25 C12        -0.1310   -3.5860   -6.2280 c3        1 74M     -0.107400
     26 C13        -0.8220   -4.5570   -7.1930 c3        1 74M     -0.092100
     27 C10        -0.9400   -2.2130   -2.7730 c         1 74M      0.661100
     28 O2         -2.0140   -2.7160   -2.4720 o         1 74M     -0.581100
     29 H2         -0.8410   -0.8000   -2.7000 h1        1 74M      0.135700
     30 H3         -0.9420   -2.6450   -1.0400 h1        1 74M      0.134700
     31 HN1         0.9120   -1.4760    0.2630 hn        1 74M      0.337500
     32 H5         -1.2130    0.1630    1.0680 h1        1 74M      0.095700
     33 H14         0.0540   -0.0120    3.2300 hc        1 74M      0.075700
     34 H161        0.8360   -2.4880    2.0550 hc        1 74M      0.054700
     35 H162        1.8420   -1.2390    2.0920 hc        1 74M      0.054700
     36 H151       -2.1470   -1.0280    2.5420 hc        1 74M      0.040700
     37 H152       -1.4550   -1.5180    3.9070 hc        1 74M      0.040700
     38 H153       -1.3070   -2.3970    2.5700 hc        1 74M      0.040700
     39 H171        0.8050   -2.6400    4.3650 hc        1 74M      0.035700
     40 H172        2.3560   -2.4730    3.9820 hc        1 74M      0.035700
     41 H173        1.5220   -1.2130    4.5250 hc        1 74M      0.035700
     42 H7          1.5830    3.9520    0.7080 h1        1 74M      0.108700
     43 H201       -0.2250    4.7780   -0.0400 hc        1 74M      0.065200
     44 H202       -0.0400    5.6180    1.3260 hc        1 74M      0.065200
     45 H191       -1.7930    4.6350    2.2610 hc        1 74M      0.059700
     46 H192       -2.1580    4.0800    0.7900 hc        1 74M      0.059700
     47 H181       -1.7630    2.0490    1.5810 h1        1 74M      0.065200
     48 H182       -1.0910    2.6400    2.9220 h1        1 74M      0.065200
     49 H91         2.1210    5.8890    4.3520 h1        1 74M      0.051033
     50 H92         3.5860    6.2850    3.8310 h1        1 74M      0.051033
     51 H93         3.3290    4.8410    4.4820 h1        1 74M      0.051033
     52 HN3         0.4860   -2.1600   -4.2650 hn        1 74M      0.316500
     53 H111       -1.8570   -3.1650   -5.1390 h1        1 74M      0.066200
     54 H112       -1.0030   -4.3680   -4.5050 h1        1 74M      0.066200
     55 H121       -0.0670   -2.6980   -6.6470 hc        1 74M      0.045700
     56 H122        0.7710   -3.9160   -6.0210 hc        1 74M      0.045700
     57 H131       -0.9470   -5.4250   -6.7500 hc        1 74M      0.038367
     58 H132       -0.2640   -4.6750   -7.9940 hc        1 74M      0.038367
     59 H133       -1.6970   -4.1930   -7.4530 hc        1 74M      0.038367
@<TRIPOS>BOND
     1    1    2 1   
     2    1    3 1   
     3    1   27 1   
     4    1   29 1   
     5    2    3 1   
     6    3    4 1   
     7    3   30 1   
     8    4    5 2   
     9    4    6 1   
    10    6    7 1   
    11    6   31 1   
    12    7    8 1   
    13    7   10 1   
    14    7   32 1   
    15    8    9 2   
    16    8   14 1   
    17   10   11 1   
    18   10   12 1   
    19   10   33 1   
    20   11   13 1   
    21   11   34 1   
    22   11   35 1   
    23   12   36 1   
    24   12   37 1   
    25   12   38 1   
    26   13   39 1   
    27   13   40 1   
    28   13   41 1   
    29   14   15 1   
    30   14   20 1   
    31   15   16 1   
    32   15   18 1   
    33   15   42 1   
    34   16   17 2   
    35   16   21 1   
    36   18   19 1   
    37   18   43 1   
    38   18   44 1   
    39   19   20 1   
    40   19   45 1   
    41   19   46 1   
    42   20   47 1   
    43   20   48 1   
    44   21   22 1   
    45   22   49 1   
    46   22   50 1   
    47   22   51 1   
    48   23   24 1   
    49   23   27 1   
    50   23   52 1   
    51   24   25 1   
    52   24   53 1   
    53   24   54 1   
    54   25   26 1   
    55   25   55 1   
    56   25   56 1   
    57   26   57 1   
    58   26   58 1   
    59   26   59 1   
    60   27   28 2   
@<TRIPOS>SUBSTRUCTURE
     1 74M         1 TEMP              0 ****  ****    0 ROOT
