@<TRIPOS>MOLECULE
74M
   61    62     1     0     0
SMALL
bcc


@<TRIPOS>ATOM
      1 C2         -1.4920   -0.1170    1.2960 cx        1 74M     -0.005900
      2 O1         -0.5340   -0.2360    0.2420 os        1 74M     -0.319600
      3 C3         -0.0240   -0.0900    1.5750 cx        1 74M      0.021100
      4 C4          0.6970   -1.3060    2.0860 c         1 74M      0.548100
      5 O4          1.3710   -2.0670    1.4150 o         1 74M     -0.342100
      6 N1          0.6020   -1.5420    3.5640 ny        1 74M     -0.660800
      7 C5          0.3370   -2.9880    3.9230 c3        1 74M      0.056500
      8 C6         -1.0620   -3.4100    3.4050 c         1 74M      0.678100
      9 O5         -1.8560   -2.5060    3.0350 o         1 74M     -0.691100
     10 C14         0.4770   -3.2100    5.4470 c3        1 74M     -0.089700
     11 C16        -0.0060   -2.0720    6.3350 c3        1 74M     -0.100400
     12 C15         1.9240   -3.5330    5.7660 c3        1 74M     -0.119100
     13 C17        -1.4740   -1.7670    6.2060 c3        1 74M     -0.123100
     14 N2         -1.3530   -4.7310    3.3120 n         1 74M     -0.414800
     15 C7         -2.7190   -5.2210    3.1090 c3        1 74M      0.056700
     16 C8         -3.6260   -4.9170    4.2970 c         1 74M      0.617100
     17 O6         -3.3360   -4.3320    5.3430 o         1 74M     -0.545000
     18 C20        -2.6070   -6.7450    2.8890 c3        1 74M     -0.081400
     19 C19        -1.1840   -7.1370    3.2730 c3        1 74M     -0.091400
     20 C18        -0.4090   -5.8280    3.4930 c3        1 74M      0.075000
     21 O7         -4.8930   -5.3590    4.0980 os        1 74M     -0.418900
     22 C9         -5.8260   -5.1590    5.1710 c3        1 74M      0.123700
     23 N3         -2.8180    1.5810   -0.0300 ny        1 74M     -0.669800
     24 C11        -3.1860    3.0380   -0.0840 c3        1 74M      0.103800
     25 C12        -3.7800    3.4300   -1.4310 c3        1 74M     -0.105400
     26 C13        -4.1170    4.9020   -1.4080 c3        1 74M     -0.104100
     27 C10        -2.2940    1.1510    1.3100 c         1 74M      0.538100
     28 O2         -2.5810    1.8030    2.2990 o         1 74M     -0.353100
     29 H2         -2.1110   -1.0280    1.5140 h1        1 74M      0.212700
     30 H3          0.5310    0.8580    1.7650 h1        1 74M      0.166700
     31 HN1        -0.1740   -0.9840    3.9580 hn        1 74M      0.482800
     32 H5          1.1270   -3.6000    3.3840 hx        1 74M      0.134700
     33 H14        -0.1610   -4.1100    5.6990 hc        1 74M      0.119700
     34 H161        0.1920   -2.3860    7.4010 hc        1 74M      0.060700
     35 H162        0.6100   -1.1470    6.1760 hc        1 74M      0.060700
     36 H151        2.5930   -2.6690    5.5340 hc        1 74M      0.062033
     37 H152        2.0280   -3.7670    6.8550 hc        1 74M      0.062033
     38 H153        2.2720   -4.4250    5.1890 hc        1 74M      0.062033
     39 H171       -1.7410   -1.3930    5.1880 hc        1 74M      0.059033
     40 H172       -2.0910   -2.6830    6.4010 hc        1 74M      0.059033
     41 H173       -1.7670   -0.9890    6.9540 hc        1 74M      0.059033
     42 H7         -3.1670   -4.7070    2.2090 h1        1 74M      0.107700
     43 H201       -2.8100   -6.9810    1.8140 hc        1 74M      0.091700
     44 H202       -3.3660   -7.2880    3.5060 hc        1 74M      0.091700
     45 H191       -0.7020   -7.7420    2.4650 hc        1 74M      0.085700
     46 H192       -1.1770   -7.7480    4.2100 hc        1 74M      0.085700
     47 H181        0.4200   -5.7250    2.7390 h1        1 74M      0.062200
     48 H182        0.0380   -5.8010    4.5240 h1        1 74M      0.062200
     49 H91        -6.7650   -5.6260    4.7800 h1        1 74M      0.067367
     50 H92        -5.9530   -4.0670    5.3590 h1        1 74M      0.067367
     51 H93        -5.4600   -5.6740    6.0910 h1        1 74M      0.067367
     52 HN3        -2.1070    1.3810   -0.7490 hn        1 74M      0.475800
     53 H111       -3.9270    3.2370    0.7450 hx        1 74M      0.118200
     54 H112       -2.2500    3.6330    0.1210 hx        1 74M      0.118200
     55 H121       -3.0490    3.2260   -2.2580 hc        1 74M      0.071700
     56 H122       -4.7110    2.8370   -1.6370 hc        1 74M      0.071700
     57 H131       -3.2030    5.5210   -1.2340 hc        1 74M      0.070033
     58 H132       -4.5560    5.1950   -2.3940 hc        1 74M      0.070033
     59 H133       -4.8640    5.1310   -0.6100 hc        1 74M      0.070033
     60 H12         1.4840   -1.2690    4.0200 hn        1 74M      0.482800
     61 H32        -3.6550    1.0220   -0.2510 hn        1 74M      0.475800
@<TRIPOS>BOND
     1    1    2 1   
     2    1    3 1   
     3    1   27 1   
     4    1   29 1   
     5    2    3 1   
     6    3    4 1   
     7    3   30 1   
     8    4    5 2   
     9    4    6 1   
    10    6    7 1   
    11    6   31 1   
    12    6   60 1   
    13    7    8 1   
    14    7   10 1   
    15    7   32 1   
    16    8    9 2   
    17    8   14 1   
    18   10   11 1   
    19   10   12 1   
    20   10   33 1   
    21   11   13 1   
    22   11   34 1   
    23   11   35 1   
    24   12   36 1   
    25   12   37 1   
    26   12   38 1   
    27   13   39 1   
    28   13   40 1   
    29   13   41 1   
    30   14   15 1   
    31   14   20 1   
    32   15   16 1   
    33   15   18 1   
    34   15   42 1   
    35   16   17 2   
    36   16   21 1   
    37   18   19 1   
    38   18   43 1   
    39   18   44 1   
    40   19   20 1   
    41   19   45 1   
    42   19   46 1   
    43   20   47 1   
    44   20   48 1   
    45   21   22 1   
    46   22   49 1   
    47   22   50 1   
    48   22   51 1   
    49   23   24 1   
    50   23   27 1   
    51   23   52 1   
    52   23   61 1   
    53   24   25 1   
    54   24   53 1   
    55   24   54 1   
    56   25   26 1   
    57   25   55 1   
    58   25   56 1   
    59   26   57 1   
    60   26   58 1   
    61   26   59 1   
    62   27   28 2   
@<TRIPOS>SUBSTRUCTURE
     1 74M         1 TEMP              0 ****  ****    0 ROOT
