@<TRIPOS>MOLECULE
74M
   59    60     1     0     0
SMALL
bcc


@<TRIPOS>ATOM
      1 C2          2.8640   -0.7750    0.1740 cx        1 74M     -0.013900
      2 O1          2.9420   -0.2070    1.4930 os        1 74M     -0.371600
      3 C3          2.6440    0.6800    0.4060 cx        1 74M      0.014100
      4 C4          1.2660    1.2970    0.4330 c         1 74M      0.671100
      5 O4          1.0000    2.2150    1.2290 o         1 74M     -0.581100
      6 N1          0.3730    0.8600   -0.5260 n         1 74M     -0.536900
      7 C5         -1.0130    1.2530   -0.5020 c3        1 74M      0.043700
      8 C6         -1.9060    0.1210    0.0700 c         1 74M      0.655100
      9 O5         -1.5530   -1.0750    0.0390 o         1 74M     -0.611100
     10 C14        -1.5640    1.6800   -1.8860 c3        1 74M     -0.065700
     11 C16        -1.1200    0.8270   -3.0650 c3        1 74M     -0.075400
     12 C15        -1.1850    3.1270   -2.1390 c3        1 74M     -0.095100
     13 C17        -1.6090   -0.5960   -3.0020 c3        1 74M     -0.114100
     14 N2         -3.1240    0.4640    0.6220 n         1 74M     -0.473800
     15 C7         -4.0940   -0.5310    1.0410 c3        1 74M      0.072700
     16 C8         -4.7940   -1.2080   -0.1320 c         1 74M      0.617100
     17 O6         -4.7910   -0.9230   -1.3280 o         1 74M     -0.531000
     18 C20        -5.1390    0.2040    1.9140 c3        1 74M     -0.080400
     19 C19        -4.8750    1.6940    1.7280 c3        1 74M     -0.092400
     20 C18        -3.5540    1.8090    0.9480 c3        1 74M      0.095000
     21 O7         -5.5230   -2.2930    0.2770 os        1 74M     -0.440900
     22 C9         -6.1920   -3.0340   -0.7440 c3        1 74M      0.126700
     23 C11         6.5850   -1.5360   -0.2530 c3        1 74M      0.080000
     24 C12         7.1260   -2.6650    0.6270 c3        1 74M     -0.107400
     25 C13         8.4660   -3.1240    0.1140 c3        1 74M     -0.092100
     26 C10         4.1430   -1.2650   -0.4600 c         1 74M      0.659100
     27 O2          4.0880   -1.8530   -1.5580 o         1 74M     -0.588100
     28 H2          2.0180   -1.4780    0.0210 h1        1 74M      0.135700
     29 H3          3.4390    1.4240    0.1880 h1        1 74M      0.127700
     30 HN1         0.5780    0.0260   -1.0330 hn        1 74M      0.329500
     31 H5         -1.0950    2.1500    0.1900 h1        1 74M      0.100700
     32 H14        -2.6890    1.6130   -1.8240 hc        1 74M      0.068700
     33 H161       -1.5290    1.3070   -3.9970 hc        1 74M      0.042200
     34 H162       -0.0030    0.8480   -3.1640 hc        1 74M      0.042200
     35 H151       -0.0750    3.2430   -2.1800 hc        1 74M      0.040033
     36 H152       -1.6130    3.4710   -3.1120 hc        1 74M      0.040033
     37 H153       -1.5810    3.7850   -1.3280 hc        1 74M      0.040033
     38 H171       -1.4500   -1.0970   -3.9870 hc        1 74M      0.047033
     39 H172       -1.0580   -1.1770   -2.2210 hc        1 74M      0.047033
     40 H173       -2.7000   -0.6340   -2.7550 hc        1 74M      0.047033
     41 H7         -3.5710   -1.3490    1.6210 h1        1 74M      0.107700
     42 H201       -5.0040   -0.0960    2.9820 hc        1 74M      0.067200
     43 H202       -6.1770   -0.0740    1.6060 hc        1 74M      0.067200
     44 H191       -4.7900    2.2120    2.7140 hc        1 74M      0.059200
     45 H192       -5.7030    2.1770    1.1540 hc        1 74M      0.059200
     46 H181       -2.7700    2.3190    1.5750 h1        1 74M      0.052200
     47 H182       -3.6960    2.4090    0.0060 h1        1 74M      0.052200
     48 H91        -6.9370   -2.3830   -1.2610 h1        1 74M      0.051700
     49 H92        -5.4490   -3.4250   -1.4800 h1        1 74M      0.051700
     50 H93        -6.6900   -3.8640   -0.1840 h1        1 74M      0.051700
     51 HN3         5.2800   -0.6650    1.1230 hn        1 74M      0.318500
     52 H111        7.3370   -0.6940   -0.2640 h1        1 74M      0.065200
     53 H112        6.4680   -1.9160   -1.3090 h1        1 74M      0.065200
     54 H121        6.4060   -3.5250    0.6280 hc        1 74M      0.046200
     55 H122        7.2280   -2.3120    1.6860 hc        1 74M      0.046200
     56 H131        8.3790   -3.5020   -0.9340 hc        1 74M      0.037700
     57 H132        9.2040   -2.2860    0.1250 hc        1 74M      0.037700
     58 H133        8.8600   -3.9500    0.7540 hc        1 74M      0.037700
     59 N3          5.3290   -0.9840    0.1820 n         1 74M     -0.549900
@<TRIPOS>BOND
     1    1    2 1   
     2    1    3 1   
     3    1   26 1   
     4    1   28 1   
     5    2    3 1   
     6    3    4 1   
     7    3   29 1   
     8    4    5 2   
     9    4    6 1   
    10    6    7 1   
    11    6   30 1   
    12    7    8 1   
    13    7   10 1   
    14    7   31 1   
    15    8    9 2   
    16    8   14 1   
    17   10   11 1   
    18   10   12 1   
    19   10   32 1   
    20   11   13 1   
    21   11   33 1   
    22   11   34 1   
    23   12   35 1   
    24   12   36 1   
    25   12   37 1   
    26   13   38 1   
    27   13   39 1   
    28   13   40 1   
    29   14   15 1   
    30   14   20 1   
    31   15   16 1   
    32   15   18 1   
    33   15   41 1   
    34   16   17 2   
    35   16   21 1   
    36   18   19 1   
    37   18   42 1   
    38   18   43 1   
    39   19   20 1   
    40   19   44 1   
    41   19   45 1   
    42   20   46 1   
    43   20   47 1   
    44   21   22 1   
    45   22   48 1   
    46   22   49 1   
    47   22   50 1   
    48   23   24 1   
    49   23   52 1   
    50   23   53 1   
    51   23   59 1   
    52   24   25 1   
    53   24   54 1   
    54   24   55 1   
    55   25   56 1   
    56   25   57 1   
    57   25   58 1   
    58   26   27 2   
    59   26   59 1   
    60   51   59 1   
@<TRIPOS>SUBSTRUCTURE
     1 74M         1 TEMP              0 ****  ****    0 ROOT
