@<TRIPOS>MOLECULE
74W
   49    51     1     0     0
SMALL
bcc


@<TRIPOS>ATOM
      1 OAC         4.5590   -0.0910    1.9500 o         1 74W     -0.658500
      2 CAZ         5.0780    0.3470    0.8980 c         1 74W      0.810500
      3 NAR         5.5690    1.6600    0.8680 n         1 74W     -0.584500
      4 CAY         6.1270    2.2510   -0.2790 c         1 74W      0.714700
      5 OAB         6.5220    3.4250   -0.2140 o         1 74W     -0.599500
      6 CAU         6.1830    1.3990   -1.4820 cc        1 74W     -0.244400
      7 CAA         6.7620    1.9940   -2.7020 c3        1 74W     -0.033900
      8 CAM         5.7150    0.1220   -1.4290 cd        1 74W      0.033600
      9 NBD         5.2140   -0.4570   -0.2660 n         1 74W     -0.386000
     10 CBC         4.6230   -1.7920   -0.3510 c3        1 74W      0.319500
     11 OAS         3.2190   -1.7100   -0.6450 os        1 74W     -0.441600
     12 CAO         4.7860   -2.6790    0.8970 c3        1 74W     -0.136400
     13 CBA         3.3790   -2.8150    1.4910 c3        1 74W      0.127100
     14 OAD         3.0180   -4.1760    1.6460 oh        1 74W     -0.589800
     15 CBB         2.4250   -2.2080    0.4420 c3        1 74W      0.112100
     16 CAN         1.5950   -1.0670    1.0530 c3        1 74W      0.049000
     17 NAP         0.7660   -0.3800    0.0980 n         1 74W     -0.506900
     18 CAT        -0.6190   -0.5070    0.1120 c         1 74W      0.573400
     19 SAE        -1.3960   -1.1830    1.3630 s         1 74W     -0.551400
     20 NAQ        -1.2770    0.0390   -0.9910 n         1 74W     -0.441100
     21 CAV        -2.6710    0.1000   -1.1770 ca        1 74W      0.061600
     22 CAL        -3.5840    0.2710   -0.1170 ca        1 74W     -0.081000
     23 CAJ        -3.1710    0.0320   -2.4990 ca        1 74W     -0.137000
     24 CAK        -4.5340    0.1330   -2.7400 ca        1 74W     -0.116000
     25 CAW        -5.4370    0.2990   -1.6830 ca        1 74W      0.043400
     26 CL         -7.0880    0.4030   -2.0540 cl        1 74W     -0.057400
     27 CAX        -4.9540    0.3720   -0.3710 ca        1 74W     -0.142300
     28 CBE        -5.8920    0.5690    0.8220 c3        1 74W      0.693200
     29 FAF        -6.8110   -0.4350    0.9970 f         1 74W     -0.230633
     30 FAG        -5.2610    0.6520    2.0400 f         1 74W     -0.230633
     31 FAH        -6.6400    1.7210    0.7710 f         1 74W     -0.230633
     32 HAR         5.4880    2.1920    1.7090 hn        1 74W      0.355500
     33 HAA1        7.8580    2.1740   -2.5550 hc        1 74W      0.053700
     34 HAA2        6.6230    1.3250   -3.5860 hc        1 74W      0.053700
     35 HAA3        6.2790    2.9810   -2.9120 hc        1 74W      0.053700
     36 HAM         5.7290   -0.5330   -2.3220 h4        1 74W      0.166000
     37 HBC         5.0790   -2.2890   -1.2620 h2        1 74W      0.086700
     38 HAO1        5.1700   -3.6810    0.5790 hc        1 74W      0.083700
     39 HAO2        5.4940   -2.2450    1.6440 hc        1 74W      0.083700
     40 HBB         1.7650   -3.0030   -0.0050 h1        1 74W      0.099700
     41 HBA         3.3060   -2.2650    2.4690 h1        1 74W      0.080700
     42 HAD         3.4250   -4.4820    2.4650 ho        1 74W      0.411000
     43 HAN1        0.9530   -1.5010    1.8790 h1        1 74W      0.104200
     44 HAN2        2.2970   -0.3020    1.4970 h1        1 74W      0.104200
     45 HAP         1.2380   -0.1090   -0.7380 hn        1 74W      0.308500
     46 HAQ        -0.7450    0.3380   -1.7810 hn        1 74W      0.314500
     47 HAL        -3.2200    0.3030    0.9310 ha        1 74W      0.205000
     48 HAJ        -2.4880   -0.1010   -3.3530 ha        1 74W      0.141000
     49 HAK        -4.9080    0.0760   -3.7750 ha        1 74W      0.156000
@<TRIPOS>BOND
     1    1    2 2   
     2    2    3 1   
     3    2    9 1   
     4    3    4 1   
     5    3   32 1   
     6    4    5 2   
     7    4    6 1   
     8    6    7 1   
     9    6    8 2   
    10    7   33 1   
    11    7   34 1   
    12    7   35 1   
    13    8    9 1   
    14    8   36 1   
    15    9   10 1   
    16   10   11 1   
    17   10   12 1   
    18   10   37 1   
    19   11   15 1   
    20   12   13 1   
    21   12   38 1   
    22   12   39 1   
    23   13   14 1   
    24   13   15 1   
    25   13   41 1   
    26   14   42 1   
    27   15   16 1   
    28   15   40 1   
    29   16   17 1   
    30   16   43 1   
    31   16   44 1   
    32   17   18 1   
    33   17   45 1   
    34   18   19 2   
    35   18   20 1   
    36   20   21 1   
    37   20   46 1   
    38   21   22 ar  
    39   21   23 ar  
    40   22   27 ar  
    41   22   47 1   
    42   23   24 ar  
    43   23   48 1   
    44   24   25 ar  
    45   24   49 1   
    46   25   26 1   
    47   25   27 ar  
    48   27   28 1   
    49   28   29 1   
    50   28   30 1   
    51   28   31 1   
@<TRIPOS>SUBSTRUCTURE
     1 74W         1 TEMP              0 ****  ****    0 ROOT
