@<TRIPOS>MOLECULE
74W
   50    52     1     0     0
SMALL
bcc


@<TRIPOS>ATOM
      1 OAC        -0.4420    2.1880   -2.0490 o         1 74W     -0.787500
      2 CAZ         0.5560    1.8030   -1.3720 c         1 74W      0.845500
      3 NAR         1.0170    2.5950   -0.3250 ns        1 74W     -0.576500
      4 CAY         2.1490    2.2600    0.4580 c         1 74W      0.706700
      5 OAB         2.4710    3.0250    1.3740 o         1 74W     -0.549500
      6 CAU         2.8400    1.0100    0.0860 cc        1 74W     -0.196400
      7 CAA         4.0440    0.6550    0.8630 c3        1 74W     -0.048900
      8 CAM         2.3630    0.2490   -0.9340 cd        1 74W      0.009600
      9 NBD         1.2180    0.5940   -1.6630 n         1 74W     -0.383000
     10 CBC         0.7600   -0.3180   -2.7050 c3        1 74W      0.330500
     11 OAS         0.4230    0.4050   -3.9090 os        1 74W     -0.430600
     12 CAO        -0.4550   -1.1940   -2.3280 c3        1 74W     -0.157400
     13 CBA        -1.4230   -1.1000   -3.5100 c3        1 74W      0.134100
     14 OAD        -1.3990   -2.2570   -4.3210 oh        1 74W     -0.583800
     15 CBB        -0.8730    0.0440   -4.3890 c3        1 74W      0.123100
     16 CAN        -1.8190    1.2570   -4.3350 c3        1 74W      0.086800
     17 NAP        -1.1410    2.5110   -4.7610 ny        1 74W     -0.627800
     18 CAT        -2.0490    3.7400   -4.6660 c         1 74W      0.325400
     19 SAE        -2.4650    4.3160   -6.0630 s         1 74W     -0.238400
     20 NAQ        -2.3080    4.1390   -3.3900 ns        1 74W     -0.357100
     21 CAV        -3.2220    5.1570   -3.0190 ca        1 74W     -0.005400
     22 CAL        -3.7270    5.1200   -1.7000 ca        1 74W     -0.093000
     23 CAJ        -3.6190    6.2020   -3.8750 ca        1 74W     -0.094000
     24 CAK        -4.5010    7.1740   -3.4170 ca        1 74W     -0.110000
     25 CAW        -5.0060    7.1370   -2.1100 ca        1 74W      0.071400
     26 Cl         -6.0740    8.3500   -1.6270 cl        1 74W     -0.004400
     27 CAX        -4.6090    6.1000   -1.2520 ca        1 74W     -0.144300
     28 CBE        -5.1210    5.9980    0.1910 c3        1 74W      0.693200
     29 FAF        -6.4810    5.8590    0.2980 f         1 74W     -0.220967
     30 FAG        -4.6230    4.9180    0.8820 f         1 74W     -0.220967
     31 FAH        -4.8000    7.0720    0.9800 f         1 74W     -0.220967
     32 HAR         0.5140    3.4330   -0.1210 hn        1 74W      0.356500
     33 HAA1        4.4490   -0.3400    0.5560 hc        1 74W      0.068700
     34 HAA2        4.8380    1.4310    0.7120 hc        1 74W      0.068700
     35 HAA3        3.7980    0.6270    1.9550 hc        1 74W      0.068700
     36 HAM         2.8590   -0.6940   -1.2360 h4        1 74W      0.180000
     37 HBC         1.6460   -0.9630   -2.9990 h2        1 74W      0.105700
     38 HAO1       -0.9520   -0.8420   -1.3900 hc        1 74W      0.092200
     39 HAO2       -0.1180   -2.2500   -2.1730 hc        1 74W      0.092200
     40 HBB        -0.7200   -0.3010   -5.4520 h1        1 74W      0.118700
     41 HBA        -2.4720   -0.8940   -3.1630 h1        1 74W      0.066700
     42 HAD        -1.8100   -2.9730   -3.8180 ho        1 74W      0.431000
     43 HAN1       -2.1830    1.3970   -3.2760 hx        1 74W      0.114700
     44 HAN2       -2.6970    1.0670   -5.0140 hx        1 74W      0.114700
     45 HAP        -0.8570    2.4380   -5.7520 hn        1 74W      0.475300
     46 HAQ        -1.8950    3.6470   -2.6110 hn        1 74W      0.368500
     47 HAL        -3.4300    4.3150   -1.0030 ha        1 74W      0.165000
     48 HAJ        -3.2440    6.2680   -4.9140 ha        1 74W      0.182000
     49 HAK        -4.8050    7.9880   -4.0980 ha        1 74W      0.179000
     50 HAP2       -0.2940    2.6150   -4.1710 hn        1 74W      0.475300
@<TRIPOS>BOND
     1    1    2 2   
     2    2    3 1   
     3    2    9 1   
     4    3    4 1   
     5    3   32 1   
     6    4    5 2   
     7    4    6 1   
     8    6    7 1   
     9    6    8 2   
    10    7   33 1   
    11    7   34 1   
    12    7   35 1   
    13    8    9 1   
    14    8   36 1   
    15    9   10 1   
    16   10   11 1   
    17   10   12 1   
    18   10   37 1   
    19   11   15 1   
    20   12   13 1   
    21   12   38 1   
    22   12   39 1   
    23   13   14 1   
    24   13   15 1   
    25   13   41 1   
    26   14   42 1   
    27   15   16 1   
    28   15   40 1   
    29   16   17 1   
    30   16   43 1   
    31   16   44 1   
    32   17   18 1   
    33   17   45 1   
    34   17   50 1   
    35   18   19 2   
    36   18   20 1   
    37   20   21 1   
    38   20   46 1   
    39   21   22 ar  
    40   21   23 ar  
    41   22   27 ar  
    42   22   47 1   
    43   23   24 ar  
    44   23   48 1   
    45   24   25 ar  
    46   24   49 1   
    47   25   26 1   
    48   25   27 ar  
    49   27   28 1   
    50   28   29 1   
    51   28   30 1   
    52   28   31 1   
@<TRIPOS>SUBSTRUCTURE
     1 74W         1 TEMP              0 ****  ****    0 ROOT
