@<TRIPOS>MOLECULE
74W
   51    53     1     0     0
SMALL
bcc


@<TRIPOS>ATOM
      1 OAC        -0.2970    2.3390   -2.2600 o         1 74W     -0.881500
      2 CAZ         0.7900    1.9680   -1.6990 c         1 74W      0.860500
      3 NAR         1.3620    2.8090   -0.7580 n         1 74W     -0.576500
      4 CAY         2.5800    2.5130   -0.0800 c         1 74W      0.702700
      5 OAB         2.9890    3.3340    0.7430 o         1 74W     -0.518500
      6 CAU         3.2190    1.2360   -0.4550 cc        1 74W     -0.161400
      7 CAA         4.4940    0.9060    0.2120 c3        1 74W     -0.059900
      8 CAM         2.6310    0.4310   -1.3770 cd        1 74W     -0.010400
      9 NBD         1.4150    0.7540   -2.0080 n         1 74W     -0.376000
     10 CBC         0.8900   -0.2290   -2.9570 c3        1 74W      0.330500
     11 OAS         0.1300    0.3990   -4.0080 os        1 74W     -0.431600
     12 CAO         0.0060   -1.3310   -2.3330 c3        1 74W     -0.165400
     13 CBA        -1.3420   -1.2690   -3.0560 c3        1 74W      0.143100
     14 OAD        -1.6230   -2.4330   -3.8030 oh        1 74W     -0.579800
     15 CBB        -1.1880   -0.1390   -4.1000 c3        1 74W      0.118100
     16 CAN        -2.2190    0.9780   -3.8450 c3        1 74W      0.091800
     17 NAP        -1.8210    2.2340   -4.5630 n4        1 74W     -0.614800
     18 CAT        -2.6770    3.4180   -4.2380 c         1 74W     -0.018600
     19 SAE        -3.7040    3.9700   -5.1980 s         1 74W      0.291600
     20 NAQ        -2.3650    3.9770   -2.8740 n4        1 74W     -0.456200
     21 CAV        -3.1330    5.1820   -2.5580 ca        1 74W     -0.108400
     22 CAL        -4.3730    5.0640   -1.9070 ca        1 74W     -0.040000
     23 CAJ        -2.5950    6.4550   -2.8450 ca        1 74W     -0.062000
     24 CAK        -3.3030    7.5860   -2.4740 ca        1 74W     -0.109000
     25 CAW        -4.5510    7.4860   -1.8220 ca        1 74W      0.122400
     26 CL         -5.3470    8.8980   -1.4070 cl        1 74W      0.074600
     27 CAX        -5.0770    6.2120   -1.5430 ca        1 74W     -0.156300
     28 CBE        -6.4330    6.0250   -0.8330 c3        1 74W      0.697200
     29 FAF        -7.4880    6.5620   -1.5180 f         1 74W     -0.204633
     30 FAG        -6.7690    4.7040   -0.6590 f         1 74W     -0.204633
     31 FAH        -6.4750    6.5630    0.4240 f         1 74W     -0.204633
     32 HAR         0.8880    3.6590   -0.5370 hn        1 74W      0.347500
     33 HAA1        5.2640    1.6850   -0.0300 hc        1 74W      0.080033
     34 HAA2        4.3530    0.9010    1.3240 hc        1 74W      0.080033
     35 HAA3        4.8780   -0.0930   -0.1090 hc        1 74W      0.080033
     36 HAM         3.0830   -0.5330   -1.6810 h4        1 74W      0.192000
     37 HBC         1.7880   -0.6750   -3.4930 h2        1 74W      0.123700
     38 HAO1       -0.1280   -1.2030   -1.2310 hc        1 74W      0.104700
     39 HAO2        0.4930   -2.3270   -2.5070 hc        1 74W      0.104700
     40 HBB        -1.2900   -0.5480   -5.1470 h1        1 74W      0.131700
     41 HBA        -2.1800   -1.0640   -2.3350 h1        1 74W      0.061700
     42 HAD        -1.7100   -3.1710   -3.1830 ho        1 74W      0.446000
     43 HAN1       -3.2300    0.6420   -4.2110 hx        1 74W      0.116200
     44 HAN2       -2.2540    1.1990   -2.7400 hx        1 74W      0.116200
     45 HAP        -1.8760    2.0740   -5.5820 hn        1 74W      0.498800
     46 HAQ        -2.5510    3.2550   -2.1540 hn        1 74W      0.489300
     47 HAL        -4.8060    4.0760   -1.6610 ha        1 74W      0.176000
     48 HAJ        -1.6180    6.5720   -3.3450 ha        1 74W      0.167000
     49 HAK        -2.8810    8.5870   -2.6900 ha        1 74W      0.204000
     50 HAP2       -0.8170    2.3990   -4.3070 hn        1 74W      0.498800
     51 HAQ2       -1.3490    4.1910   -2.8050 hn        1 74W      0.489300
@<TRIPOS>BOND
     1    1    2 2   
     2    2    3 1   
     3    2    9 1   
     4    3    4 1   
     5    3   32 1   
     6    4    5 2   
     7    4    6 1   
     8    6    7 1   
     9    6    8 2   
    10    7   33 1   
    11    7   34 1   
    12    7   35 1   
    13    8    9 1   
    14    8   36 1   
    15    9   10 1   
    16   10   11 1   
    17   10   12 1   
    18   10   37 1   
    19   11   15 1   
    20   12   13 1   
    21   12   38 1   
    22   12   39 1   
    23   13   14 1   
    24   13   15 1   
    25   13   41 1   
    26   14   42 1   
    27   15   16 1   
    28   15   40 1   
    29   16   17 1   
    30   16   43 1   
    31   16   44 1   
    32   17   18 1   
    33   17   45 1   
    34   17   50 1   
    35   18   19 2   
    36   18   20 1   
    37   20   21 1   
    38   20   46 1   
    39   20   51 1   
    40   21   22 ar  
    41   21   23 ar  
    42   22   27 ar  
    43   22   47 1   
    44   23   24 ar  
    45   23   48 1   
    46   24   25 ar  
    47   24   49 1   
    48   25   26 1   
    49   25   27 ar  
    50   27   28 1   
    51   28   29 1   
    52   28   30 1   
    53   28   31 1   
@<TRIPOS>SUBSTRUCTURE
     1 74W         1 TEMP              0 ****  ****    0 ROOT
