@<TRIPOS>MOLECULE
74W
   49    47     1     0     0
SMALL
bcc


@<TRIPOS>ATOM
      1 OAC         1.8130   -0.0990    3.4070 o         1 74W     -0.383000
      2 CAZ         2.9850   -0.4430    3.4590 c1        1 74W      0.401000
      3 NAR         3.7120   -0.3670    4.7310 n2        1 74W     -0.364000
      4 CAY         5.1040   -0.6550    4.7730 c2        1 74W      0.353000
      5 OAB         5.7250   -0.4970    5.8040 o         1 74W     -0.324000
      6 CAU         5.8090   -1.0440    3.5410 c2        1 74W     -0.221000
      7 CAA         7.3070   -1.2980    3.5690 c3        1 74W     -0.156000
      8 CAM         5.0820   -1.0830    2.2620 c1        1 74W      0.032000
      9 NBD         3.6890   -0.8310    2.2310 n2        1 74W     -0.278000
     10 CBC         2.9630   -0.9280    0.9790 c3        1 74W      0.167000
     11 OAS         1.9770    0.3120    0.8220 os        1 74W     -0.292000
     12 CAO         2.2310   -1.9750    0.9760 c3        1 74W     -0.180000
     13 CBA         0.9940   -1.5920    0.1760 c3        1 74W      0.019000
     14 OAD         1.0170   -2.2010   -1.0520 oh        1 74W     -0.319000
     15 CBB         1.0630   -0.0640    0.0150 c3        1 74W     -0.036000
     16 CAN        -0.3070    0.5900    0.4050 c3        1 74W     -0.070000
     17 NAP        -0.8080    1.3620   -0.7140 n         1 74W     -0.304000
     18 CAT        -2.1400    1.1930   -1.1490 c2        1 74W      0.149000
     19 SAE        -3.3730    1.0590   -0.0290 s         1 74W     -0.283000
     20 NAQ        -2.4510    1.2750   -2.5440 n         1 74W     -0.275000
     21 CAV        -3.7690    1.0400   -2.9850 c2        1 74W      0.053000
     22 CAL        -4.7630    1.9990   -2.7570 c2        1 74W     -0.122000
     23 CAJ        -4.0670   -0.1170   -3.7060 c1        1 74W     -0.084000
     24 CAK        -5.3500   -0.3190   -4.1990 c1        1 74W     -0.119000
     25 CAW        -6.3460    0.6380   -3.9720 c1        1 74W     -0.030000
     26 CL         -7.9070    0.4540   -4.7110 cl        1 74W      0.023000
     27 CAX        -6.0470    1.8000   -3.2480 c2        1 74W     -0.140000
     28 CBE        -7.1190    2.8580   -3.0180 c3        1 74W      0.472000
     29 FAF        -7.6420    2.7030   -1.7960 f         1 74W     -0.161000
     30 FAG        -6.5650    4.0830   -3.1170 f         1 74W     -0.161000
     31 FAH        -8.0790    2.7290   -3.9330 f         1 74W     -0.161000
     32 HAR         3.2730   -0.1250    5.4930 hn        1 74W      0.268000
     33 HAA1        7.4960   -2.0950    4.1280 hc        1 74W      0.093667
     34 HAA2        7.6300   -1.4560    2.6520 hc        1 74W      0.093667
     35 HAA3        7.7670   -0.5150    3.9480 hc        1 74W      0.093667
     36 HAM         5.5420   -1.3370    1.4540 ha        1 74W      0.166000
     37 HBC         3.5900   -0.9560    0.2280 h2        1 74W      0.126000
     38 HAO1        1.9820   -2.2170    1.8900 hc        1 74W      0.129000
     39 HAO2        2.7020   -2.7200    0.5410 hc        1 74W      0.129000
     40 HBB         1.3030    0.1720   -0.9090 h1        1 74W      0.127000
     41 HBA         0.2000   -1.8410    0.6560 h1        1 74W      0.118000
     42 HAD         0.4730   -2.9150   -1.0420 ho        1 74W      0.213000
     43 HAN1       -0.9600   -0.1210    0.6350 h1        1 74W      0.142000
     44 HAN2       -0.1790    1.1870    1.1860 h1        1 74W      0.142000
     45 HAP        -0.2760    1.9780   -1.1120 hn        1 74W      0.222000
     46 HAQ        -1.8010    1.4850   -3.1450 hn        1 74W      0.223000
     47 HAL        -4.5500    2.8190   -2.2450 ha        1 74W      0.155000
     48 HAJ        -3.3700   -0.7860   -3.8640 ha        1 74W      0.195000
     49 HAK        -5.5600   -1.1400   -4.7100 ha        1 74W      0.162000
@<TRIPOS>BOND
     1    1    2 1   
     2    2    9 1   
     3    3    4 1   
     4    3   32 1   
     5    4    5 1   
     6    4    6 1   
     7    6    7 1   
     8    6    8 1   
     9    7   33 1   
    10    7   34 1   
    11    7   35 1   
    12    8   36 1   
    13    9   10 1   
    14   10   11 1   
    15   10   12 1   
    16   10   37 1   
    17   11   15 1   
    18   12   13 1   
    19   12   38 1   
    20   12   39 1   
    21   13   14 1   
    22   13   15 1   
    23   13   41 1   
    24   14   42 1   
    25   15   16 1   
    26   15   40 1   
    27   16   17 1   
    28   16   43 1   
    29   16   44 1   
    30   17   18 1   
    31   17   45 1   
    32   18   19 1   
    33   18   20 1   
    34   20   21 1   
    35   20   46 1   
    36   21   22 1   
    37   21   23 1   
    38   22   27 1   
    39   22   47 1   
    40   23   48 1   
    41   24   25 1   
    42   24   49 1   
    43   25   27 1   
    44   27   28 1   
    45   28   29 1   
    46   28   30 1   
    47   28   31 1   
@<TRIPOS>SUBSTRUCTURE
     1 74W         1 TEMP              0 ****  ****    0 ROOT
