@<TRIPOS>MOLECULE
74W
   50    52     1     0     0
SMALL
bcc


@<TRIPOS>ATOM
      1 OAC        -0.4400    2.1920   -2.0550 o         1 74W     -0.787500
      2 CAZ         0.5690    1.8200   -1.3870 c         1 74W      0.845500
      3 NAR         1.0420    2.6270   -0.3580 n         1 74W     -0.576500
      4 CAY         2.1870    2.3070    0.4130 c         1 74W      0.706700
      5 OAB         2.5200    3.0850    1.3140 o         1 74W     -0.549500
      6 CAU         2.8770    1.0540    0.0470 cc        1 74W     -0.196400
      7 CAA         4.0940    0.7130    0.8110 c3        1 74W     -0.048900
      8 CAM         2.3870    0.2770   -0.9540 cd        1 74W      0.009600
      9 NBD         1.2310    0.6080   -1.6720 n         1 74W     -0.383000
     10 CBC         0.7610   -0.3190   -2.6940 c3        1 74W      0.330500
     11 OAS         0.4060    0.3860   -3.9030 os        1 74W     -0.430600
     12 CAO        -0.4460   -1.1930   -2.2880 c3        1 74W     -0.157400
     13 CBA        -1.4300   -1.1190   -3.4580 c3        1 74W      0.134100
     14 OAD        -1.4120   -2.2870   -4.2540 oh        1 74W     -0.583800
     15 CBB        -0.8960    0.0150   -4.3600 c3        1 74W      0.123100
     16 CAN        -1.8450    1.2250   -4.3090 c3        1 74W      0.086800
     17 NAP        -1.1780    2.4760   -4.7610 n4        1 74W     -0.627800
     18 CAT        -2.0880    3.7030   -4.6700 c         1 74W      0.325400
     19 SAE        -2.5270    4.2590   -6.0690 s         1 74W     -0.238400
     20 NAQ        -2.3300    4.1190   -3.3960 n         1 74W     -0.357100
     21 CAV        -3.2420    5.1390   -3.0260 ca        1 74W     -0.005400
     22 CAL        -3.7280    5.1190   -1.6990 ca        1 74W     -0.093000
     23 CAJ        -3.6550    6.1710   -3.8910 ca        1 74W     -0.094000
     24 CAK        -4.5340    7.1460   -3.4330 ca        1 74W     -0.110000
     25 CAW        -5.0200    7.1260   -2.1190 ca        1 74W      0.071400
     26 CL         -6.0840    8.3420   -1.6370 cl        1 74W     -0.004400
     27 CAX        -4.6060    6.1020   -1.2520 ca        1 74W     -0.144300
     28 CBE        -5.0970    6.0200    0.2000 c3        1 74W      0.693200
     29 FAF        -6.4540    5.8780    0.3290 f         1 74W     -0.220967
     30 FAG        -4.5840    4.9510    0.8990 f         1 74W     -0.220967
     31 FAH        -4.7680    7.1060    0.9690 f         1 74W     -0.220967
     32 HAR         0.5400    3.4660   -0.1580 hn        1 74W      0.356500
     33 HAA1        4.4990   -0.2840    0.5110 hc        1 74W      0.068700
     34 HAA2        3.8630    0.6980    1.9070 hc        1 74W      0.068700
     35 HAA3        4.8810    1.4910    0.6390 hc        1 74W      0.068700
     36 HAM         2.8830   -0.6680   -1.2510 h4        1 74W      0.180000
     37 HBC         1.6450   -0.9660   -2.9920 h2        1 74W      0.105700
     38 HAO1       -0.1040   -2.2460   -2.1230 hc        1 74W      0.092200
     39 HAO2       -0.9310   -0.8290   -1.3480 hc        1 74W      0.092200
     40 HBB        -0.7570   -0.3440   -5.4200 h1        1 74W      0.118700
     41 HBA        -2.4750   -0.9120   -3.0990 h1        1 74W      0.066700
     42 HAD        -1.8140   -2.9980   -3.7350 ho        1 74W      0.431000
     43 HAN1       -2.7330    1.0240   -4.9730 hx        1 74W      0.114700
     44 HAN2       -2.1950    1.3790   -3.2470 hx        1 74W      0.114700
     45 HAP        -0.3230    2.5900   -4.1840 hn        1 74W      0.475300
     46 HAQ        -1.9050    3.6390   -2.6160 hn        1 74W      0.368500
     47 HAL        -3.4170    4.3250   -0.9950 ha        1 74W      0.165000
     48 HAJ        -3.2960    6.2230   -4.9360 ha        1 74W      0.182000
     49 HAK        -4.8510    7.9500   -4.1210 ha        1 74W      0.179000
     50 HAP2       -0.9070    2.3900   -5.7550 hn        1 74W      0.475300
@<TRIPOS>BOND
     1    1    2 2   
     2    2    3 1   
     3    2    9 1   
     4    3    4 1   
     5    3   32 1   
     6    4    5 2   
     7    4    6 1   
     8    6    7 1   
     9    6    8 2   
    10    7   33 1   
    11    7   34 1   
    12    7   35 1   
    13    8    9 1   
    14    8   36 1   
    15    9   10 1   
    16   10   11 1   
    17   10   12 1   
    18   10   37 1   
    19   11   15 1   
    20   12   13 1   
    21   12   38 1   
    22   12   39 1   
    23   13   14 1   
    24   13   15 1   
    25   13   41 1   
    26   14   42 1   
    27   15   16 1   
    28   15   40 1   
    29   16   17 1   
    30   16   43 1   
    31   16   44 1   
    32   17   18 1   
    33   17   45 1   
    34   17   50 1   
    35   18   19 2   
    36   18   20 1   
    37   20   21 1   
    38   20   46 1   
    39   21   22 ar  
    40   21   23 ar  
    41   22   27 ar  
    42   22   47 1   
    43   23   24 ar  
    44   23   48 1   
    45   24   25 ar  
    46   24   49 1   
    47   25   26 1   
    48   25   27 ar  
    49   27   28 1   
    50   28   29 1   
    51   28   30 1   
    52   28   31 1   
@<TRIPOS>SUBSTRUCTURE
     1 74W         1 TEMP              0 ****  ****    0 ROOT
