@<TRIPOS>MOLECULE
74X
   49    51     1     0     0
SMALL
bcc


@<TRIPOS>ATOM
      1 OAC         5.8960    0.4520    2.7660 o         1 74X     -0.646500
      2 CAZ         5.8370    0.9120    1.6040 c         1 74X      0.810500
      3 NAR         6.4190    2.1500    1.3010 n         1 74X     -0.584500
      4 CAY         6.3790    2.7280    0.0190 c         1 74X      0.715700
      5 OAB         6.9100    3.8380   -0.1470 o         1 74X     -0.605500
      6 CAU         5.6900    1.9470   -1.0260 cc        1 74X     -0.248400
      7 CAA         5.6470    2.5280   -2.3820 c3        1 74X     -0.032900
      8 CAM         5.1320    0.7460   -0.7160 cd        1 74X      0.029600
      9 NBD         5.2150    0.1820    0.5520 n         1 74X     -0.388000
     10 CBC         4.4640   -1.0200    0.8920 c3        1 74X      0.306500
     11 OAS         3.0490   -0.7620    0.8570 os        1 74X     -0.434600
     12 CAO         4.7190   -2.2080   -0.0620 c3        1 74X     -0.149400
     13 CBA         3.4720   -2.2950   -0.9500 c3        1 74X      0.116100
     14 OAD         3.7360   -1.8110   -2.2560 oh        1 74X     -0.597800
     15 CBB         2.4500   -1.3270   -0.3170 c3        1 74X      0.100100
     16 CAN         1.1740   -2.0730    0.1100 c3        1 74X      0.069000
     17 NAP         0.2190   -1.2460    0.7970 n         1 74X     -0.509900
     18 CAT        -0.9720   -0.8570    0.1890 c         1 74X      0.575400
     19 SAE        -1.4830   -1.5550   -1.1820 s         1 74X     -0.554400
     20 NAQ        -1.7000    0.1130    0.8740 n         1 74X     -0.437100
     21 CAV        -2.9570    0.6220    0.4940 ca        1 74X      0.056600
     22 CAL        -3.9460   -0.1590   -0.1360 ca        1 74X     -0.079000
     23 CAJ        -3.2520    1.9710    0.8060 ca        1 74X     -0.133000
     24 CAK        -4.4930    2.5070    0.4940 ca        1 74X     -0.117000
     25 CAW        -5.4720    1.7280   -0.1350 ca        1 74X      0.045400
     26 CLA        -6.9600    2.4550   -0.4960 cl        1 74X     -0.055400
     27 CAX        -5.1930    0.3910   -0.4440 ca        1 74X     -0.144300
     28 CBE        -6.2280   -0.5130   -1.1170 c3        1 74X      0.693200
     29 FAG        -5.8110   -1.8060   -1.3240 f         1 74X     -0.230300
     30 FAH        -7.3960   -0.6640   -0.4090 f         1 74X     -0.230300
     31 FAF        -6.6270   -0.0950   -2.3620 f         1 74X     -0.230300
     32 HAR         6.8660    2.6350    2.0500 hn        1 74X      0.353500
     33 HAA1        4.9850    1.9320   -3.0570 hc        1 74X      0.053033
     34 HAA2        5.2680    3.5800   -2.3350 hc        1 74X      0.053033
     35 HAA3        6.6770    2.5550   -2.8190 hc        1 74X      0.053033
     36 HAM         4.5870    0.1340   -1.4670 h4        1 74X      0.186000
     37 HBC         4.6890   -1.2780    1.9720 h2        1 74X      0.132700
     38 HAO1        5.6420   -2.0780   -0.6760 hc        1 74X      0.081200
     39 HAO2        4.8300   -3.1360    0.5510 hc        1 74X      0.081200
     40 HBB         2.2150   -0.4840   -1.0240 h1        1 74X      0.091700
     41 HBA         3.0740   -3.3440   -0.9970 h1        1 74X      0.064700
     42 HAD         4.2080   -2.5080   -2.7280 ho        1 74X      0.416000
     43 HAN1        0.6990   -2.5200   -0.8170 h1        1 74X      0.093700
     44 HAN2        1.4590   -2.9030    0.8190 h1        1 74X      0.093700
     45 HAP         0.6010   -0.7120    1.5490 hn        1 74X      0.315500
     46 HAQ        -1.2860    0.5820    1.6520 hn        1 74X      0.317500
     47 HAL        -3.7320   -1.2120   -0.4110 ha        1 74X      0.203000
     48 HAJ        -2.5040    2.6120    1.2990 ha        1 74X      0.143000
     49 HAK        -4.7070    3.5600    0.7410 ha        1 74X      0.158000
@<TRIPOS>BOND
     1    1    2 2   
     2    2    3 1   
     3    2    9 1   
     4    3    4 1   
     5    3   32 1   
     6    4    5 2   
     7    4    6 1   
     8    6    7 1   
     9    6    8 2   
    10    7   33 1   
    11    7   34 1   
    12    7   35 1   
    13    8    9 1   
    14    8   36 1   
    15    9   10 1   
    16   10   11 1   
    17   10   12 1   
    18   10   37 1   
    19   11   15 1   
    20   12   13 1   
    21   12   38 1   
    22   12   39 1   
    23   13   14 1   
    24   13   15 1   
    25   13   41 1   
    26   14   42 1   
    27   15   16 1   
    28   15   40 1   
    29   16   17 1   
    30   16   43 1   
    31   16   44 1   
    32   17   18 1   
    33   17   45 1   
    34   18   19 2   
    35   18   20 1   
    36   20   21 1   
    37   20   46 1   
    38   21   22 ar  
    39   21   23 ar  
    40   22   27 ar  
    41   22   47 1   
    42   23   24 ar  
    43   23   48 1   
    44   24   25 ar  
    45   24   49 1   
    46   25   26 1   
    47   25   27 ar  
    48   27   28 1   
    49   28   29 1   
    50   28   30 1   
    51   28   31 1   
@<TRIPOS>SUBSTRUCTURE
     1 74X         1 TEMP              0 ****  ****    0 ROOT
