@<TRIPOS>MOLECULE
74X
   49    47     1     0     0
SMALL
bcc


@<TRIPOS>ATOM
      1 OAC         2.2250    2.5240    2.5740 o         1 74X     -0.406000
      2 CAZ         1.6030    2.4140    3.6130 c1        1 74X      0.410000
      3 NAR         2.3010    2.5020    4.8950 n2        1 74X     -0.361000
      4 CAY         1.5940    2.2820    6.1050 c2        1 74X      0.353000
      5 OAB         2.1930    2.2450    7.1600 o         1 74X     -0.321000
      6 CAU         0.1410    2.0760    6.0770 c2        1 74X     -0.216000
      7 CAA        -0.6100    1.8020    7.3620 c3        1 74X     -0.157000
      8 CAM        -0.5660    2.0320    4.7900 c1        1 74X      0.032000
      9 NBD         0.1540    2.2090    3.5790 n2        1 74X     -0.277000
     10 CBC        -0.4730    2.2140    2.4480 c3        1 74X      0.162000
     11 OAS         0.5310    2.2140    1.2810 os        1 74X     -0.265000
     12 CAO        -1.3160    0.9020    2.2880 c3        1 74X     -0.216000
     13 CBA        -1.0310    0.4670    1.1200 c3        1 74X      0.013000
     14 OAD        -1.0390   -0.9950    1.1130 oh        1 74X     -0.331000
     15 CBB         0.4650    1.0200    0.7850 c3        1 74X     -0.038000
     16 CAN         0.6780    1.0660   -0.7000 c3        1 74X     -0.045000
     17 NAP         1.2930   -0.1430   -1.1280 n         1 74X     -0.319000
     18 CAT         1.2940   -0.4900   -2.5040 c2        1 74X      0.148000
     19 SAE         1.7970    0.6250   -3.6480 s         1 74X     -0.265000
     20 NAQ         0.9150   -1.7960   -2.9070 n         1 74X     -0.276000
     21 CAV         0.4590   -2.0270   -4.2310 c2        1 74X      0.054000
     22 CAL        -0.6620   -2.8120   -4.4500 c2        1 74X     -0.122000
     23 CAJ         1.1740   -1.5240   -5.3070 c1        1 74X     -0.086000
     24 CAK         0.7670   -1.8060   -6.6010 c1        1 74X     -0.119000
     25 CAW        -0.3540   -2.5910   -6.8200 c1        1 74X     -0.031000
     26 CLA        -0.8630   -2.9480   -8.4490 cl        1 74X      0.022000
     27 CAX        -1.0690   -3.0940   -5.7450 c2        1 74X     -0.140000
     28 CBE        -2.2700   -3.9810   -5.9840 c3        1 74X      0.472000
     29 FAG        -3.2390   -3.6650   -5.1160 f         1 74X     -0.161333
     30 FAH        -2.7150   -3.8030   -7.2340 f         1 74X     -0.161333
     31 FAF        -1.9200   -5.2620   -5.8140 f         1 74X     -0.161333
     32 HAR         3.1950    2.6790    4.9150 hn        1 74X      0.269000
     33 HAA1       -0.6260    2.6150    7.9100 hc        1 74X      0.094000
     34 HAA2       -1.5280    1.5310    7.1530 hc        1 74X      0.094000
     35 HAA3       -0.1610    1.0840    7.8550 hc        1 74X      0.094000
     36 HAM        -1.5330    1.8960    4.7670 ha        1 74X      0.167000
     37 HBC        -1.0550    2.9970    2.3900 h2        1 74X      0.131000
     38 HAO1       -1.0570    0.2460    2.9680 hc        1 74X      0.122500
     39 HAO2       -2.2720    1.1020    2.3540 hc        1 74X      0.122500
     40 HBB         1.1370    0.4450    1.2030 h1        1 74X      0.123000
     41 HBA        -1.6720    0.8120    0.4660 h1        1 74X      0.125000
     42 HAD        -1.6890   -1.2850    0.5800 ho        1 74X      0.236000
     43 HAN1        1.2570    1.8230   -0.9230 h1        1 74X      0.134000
     44 HAN2       -0.1850    1.1710   -1.1500 h1        1 74X      0.134000
     45 HAP         1.6910   -0.6930   -0.5190 hn        1 74X      0.227000
     46 HAQ         0.9730   -2.4900   -2.3170 hn        1 74X      0.224000
     47 HAL        -1.1660   -3.1660   -3.6930 ha        1 74X      0.155000
     48 HAJ         1.9630   -0.9720   -5.1520 ha        1 74X      0.196000
     49 HAK         1.2710   -1.4520   -7.3590 ha        1 74X      0.161000
@<TRIPOS>BOND
     1    1    2 1   
     2    2    9 1   
     3    3    4 1   
     4    3   32 1   
     5    4    5 1   
     6    4    6 1   
     7    6    7 1   
     8    6    8 1   
     9    7   33 1   
    10    7   34 1   
    11    7   35 1   
    12    8   36 1   
    13    9   10 1   
    14   10   11 1   
    15   10   12 1   
    16   10   37 1   
    17   11   15 1   
    18   12   13 1   
    19   12   38 1   
    20   12   39 1   
    21   13   14 1   
    22   13   15 1   
    23   13   41 1   
    24   14   42 1   
    25   15   16 1   
    26   15   40 1   
    27   16   17 1   
    28   16   43 1   
    29   16   44 1   
    30   17   18 1   
    31   17   45 1   
    32   18   19 1   
    33   18   20 1   
    34   20   21 1   
    35   20   46 1   
    36   21   22 1   
    37   21   23 1   
    38   22   27 1   
    39   22   47 1   
    40   23   48 1   
    41   24   25 1   
    42   24   49 1   
    43   25   27 1   
    44   27   28 1   
    45   28   29 1   
    46   28   30 1   
    47   28   31 1   
@<TRIPOS>SUBSTRUCTURE
     1 74X         1 TEMP              0 ****  ****    0 ROOT
