@<TRIPOS>MOLECULE
74X
   50    52     1     0     0
SMALL
bcc


@<TRIPOS>ATOM
      1 OAC         0.7040    1.9930   -1.0200 o         1 74X     -0.635500
      2 CAZ         1.4190    1.1160   -0.4920 c         1 74X      0.813500
      3 NAR         1.9480    1.2820    0.7890 n         1 74X     -0.578500
      4 CAY         2.7860    0.3340    1.4090 c         1 74X      0.709700
      5 OAB         3.2170    0.5730    2.5450 o         1 74X     -0.570500
      6 CAU         3.0910   -0.8820    0.6230 cc        1 74X     -0.211400
      7 CAA         3.9660   -1.8850    1.2590 c3        1 74X     -0.043900
      8 CAM         2.5640   -1.0350   -0.6200 cd        1 74X     -0.003400
      9 NBD         1.6990   -0.1010   -1.1890 n         1 74X     -0.397000
     10 CBC         1.2470   -0.2180   -2.5560 c3        1 74X      0.318500
     11 OAS         2.3110    0.1560   -3.4780 os        1 74X     -0.462600
     12 CAO         0.8030   -1.6340   -2.9800 c3        1 74X     -0.151400
     13 CBA         1.9280   -2.1860   -3.8620 c3        1 74X      0.125100
     14 OAD         2.6820   -3.1930   -3.2120 oh        1 74X     -0.597800
     15 CBB         2.8990   -0.9990   -4.0660 c3        1 74X      0.108100
     16 CAN         3.1170   -0.7050   -5.5600 c3        1 74X      0.092800
     17 NAP         3.7970    0.6050   -5.7650 n4        1 74X     -0.640800
     18 CAT         3.9410    0.9980   -7.2440 c         1 74X      0.295400
     19 SAE         3.1030    2.2460   -7.6460 s         1 74X     -0.142400
     20 NAQ         4.7680    0.1750   -7.9570 n         1 74X     -0.373100
     21 CAV         5.1250    0.3880   -9.3150 ca        1 74X     -0.014400
     22 CAL         4.2400    0.9470  -10.2510 ca        1 74X     -0.073000
     23 CAJ         6.4110   -0.0260   -9.7380 ca        1 74X     -0.102000
     24 CAK         6.7820    0.1230  -11.0640 ca        1 74X     -0.109000
     25 CAW         5.8980    0.6830  -12.0040 ca        1 74X      0.078400
     26 CLA         6.4240    0.8390  -13.5970 cl        1 74X      0.003600
     27 CAX         4.6240    1.0900  -11.5880 ca        1 74X     -0.146300
     28 CBE         3.6070    1.6990  -12.5630 c3        1 74X      0.694200
     29 FAG         2.4040    2.0220  -11.9820 f         1 74X     -0.218967
     30 FAH         4.0210    2.8680  -13.1460 f         1 74X     -0.218967
     31 FAF         3.2620    0.8730  -13.6010 f         1 74X     -0.218967
     32 HAR         1.7030    2.1200    1.2770 hn        1 74X      0.364500
     33 HAA1        4.2340   -2.7030    0.5470 hc        1 74X      0.061033
     34 HAA2        4.9060   -1.3960    1.6240 hc        1 74X      0.061033
     35 HAA3        3.4490   -2.3320    2.1470 hc        1 74X      0.061033
     36 HAM         2.7820   -1.9240   -1.2460 h4        1 74X      0.172000
     37 HBC         0.4440    0.5630   -2.7360 h2        1 74X      0.147700
     38 HAO1       -0.1480   -1.5480   -3.5650 hc        1 74X      0.096700
     39 HAO2        0.6090   -2.3030   -2.1040 hc        1 74X      0.096700
     40 HBB         3.8800   -1.2050   -3.5520 h1        1 74X      0.096700
     41 HBA         1.5290   -2.5750   -4.8370 h1        1 74X      0.063700
     42 HAD         2.1020   -3.9580   -3.0920 ho        1 74X      0.435000
     43 HAN1        3.7400   -1.5320   -6.0010 hx        1 74X      0.108700
     44 HAN2        2.1250   -0.6610   -6.0940 hx        1 74X      0.108700
     45 HAP         3.2110    1.3480   -5.3260 hn        1 74X      0.470800
     46 HAQ         5.2880   -0.5490   -7.5030 hn        1 74X      0.336500
     47 HAL         3.2310    1.2890   -9.9480 ha        1 74X      0.183000
     48 HAJ         7.1290   -0.4700   -9.0290 ha        1 74X      0.153000
     49 HAK         7.7880   -0.1990  -11.3880 ha        1 74X      0.180000
     50 HAP2        4.7050    0.5940   -5.2880 hn        1 74X      0.470800
@<TRIPOS>BOND
     1    1    2 2   
     2    2    3 1   
     3    2    9 1   
     4    3    4 1   
     5    3   32 1   
     6    4    5 2   
     7    4    6 1   
     8    6    7 1   
     9    6    8 2   
    10    7   33 1   
    11    7   34 1   
    12    7   35 1   
    13    8    9 1   
    14    8   36 1   
    15    9   10 1   
    16   10   11 1   
    17   10   12 1   
    18   10   37 1   
    19   11   15 1   
    20   12   13 1   
    21   12   38 1   
    22   12   39 1   
    23   13   14 1   
    24   13   15 1   
    25   13   41 1   
    26   14   42 1   
    27   15   16 1   
    28   15   40 1   
    29   16   17 1   
    30   16   43 1   
    31   16   44 1   
    32   17   18 1   
    33   17   45 1   
    34   17   50 1   
    35   18   19 2   
    36   18   20 1   
    37   20   21 1   
    38   20   46 1   
    39   21   22 ar  
    40   21   23 ar  
    41   22   27 ar  
    42   22   47 1   
    43   23   24 ar  
    44   23   48 1   
    45   24   25 ar  
    46   24   49 1   
    47   25   26 1   
    48   25   27 ar  
    49   27   28 1   
    50   28   29 1   
    51   28   30 1   
    52   28   31 1   
@<TRIPOS>SUBSTRUCTURE
     1 74X         1 TEMP              0 ****  ****    0 ROOT
