@<TRIPOS>MOLECULE
74X
   50    52     1     0     0
SMALL
bcc


@<TRIPOS>ATOM
      1 OAC         0.9950    2.2210   -0.9760 o         1 74X     -0.635500
      2 CAZ         1.5910    1.2480   -0.4660 c         1 74X      0.813500
      3 NAR         2.1310    1.3170    0.8200 ns        1 74X     -0.578500
      4 CAY         2.8390    0.2570    1.4190 c         1 74X      0.709700
      5 OAB         3.2920    0.4140    2.5610 o         1 74X     -0.570500
      6 CAU         2.9900   -0.9700    0.6070 cc        1 74X     -0.211400
      7 CAA         3.7280   -2.0910    1.2210 c3        1 74X     -0.043900
      8 CAM         2.4530   -1.0280   -0.6400 cd        1 74X     -0.003400
      9 NBD         1.7170    0.0210   -1.1900 n         1 74X     -0.397000
     10 CBC         1.2590   -0.0070   -2.5590 c3        1 74X      0.318500
     11 OAS         2.3660    0.2470   -3.4710 os        1 74X     -0.462600
     12 CAO         0.6390   -1.3450   -3.0150 c3        1 74X     -0.151400
     13 CBA         1.6880   -2.0180   -3.9070 c3        1 74X      0.125100
     14 OAD         2.3040   -3.1270   -3.2780 oh        1 74X     -0.597800
     15 CBB         2.8030   -0.9610   -4.0850 c3        1 74X      0.108100
     16 CAN         3.0620   -0.6640   -5.5710 c3        1 74X      0.092800
     17 NAP         3.9060    0.5510   -5.7470 ny        1 74X     -0.640800
     18 CAT         4.0990    0.9580   -7.2170 c         1 74X      0.295400
     19 SAE         3.4340    2.3160   -7.5840 s         1 74X     -0.142400
     20 NAQ         4.8090    0.0520   -7.9530 ns        1 74X     -0.373100
     21 CAV         5.1900    0.2480   -9.3080 ca        1 74X     -0.014400
     22 CAL         4.3860    0.9450  -10.2250 ca        1 74X     -0.073000
     23 CAJ         6.4080   -0.3240   -9.7470 ca        1 74X     -0.102000
     24 CAK         6.7940   -0.1920  -11.0700 ca        1 74X     -0.109000
     25 CAW         5.9920    0.5050  -11.9920 ca        1 74X      0.078400
     26 ClA         6.5310    0.6280  -13.5830 cl        1 74X      0.003600
     27 CAX         4.7850    1.0680  -11.5590 ca        1 74X     -0.146300
     28 CBE         3.8570    1.8330  -12.5140 c3        1 74X      0.694200
     29 FAG         2.7090    2.3000  -11.9190 f         1 74X     -0.218967
     30 FAH         4.4230    2.9500  -13.0710 f         1 74X     -0.218967
     31 FAF         3.4030    1.0870  -13.5710 f         1 74X     -0.218967
     32 HAR         1.9930    2.1690    1.3250 hn        1 74X      0.364500
     33 HAA1        4.7200   -1.7330    1.5990 hc        1 74X      0.061033
     34 HAA2        3.1540   -2.4870    2.0980 hc        1 74X      0.061033
     35 HAA3        3.8920   -2.9200    0.4920 hc        1 74X      0.061033
     36 HAM         2.5580   -1.9230   -1.2860 h4        1 74X      0.172000
     37 HBC         0.5630    0.8740   -2.7230 h2        1 74X      0.147700
     38 HAO1       -0.2900   -1.1260   -3.5990 hc        1 74X      0.096700
     39 HAO2        0.3580   -2.0030   -2.1550 hc        1 74X      0.096700
     40 HBB         3.7480   -1.3020   -3.5750 h1        1 74X      0.097700
     41 HBA         1.2460   -2.3320   -4.8910 h1        1 74X      0.063700
     42 HAD         1.6310   -3.8130   -3.1760 ho        1 74X      0.435000
     43 HAN1        2.0860   -0.4800   -6.1040 hx        1 74X      0.108700
     44 HAN2        3.5740   -1.5550   -6.0310 hx        1 74X      0.108700
     45 HAP         3.4220    1.3520   -5.2880 hn        1 74X      0.470800
     46 HAQ         5.2300   -0.7470   -7.5200 hn        1 74X      0.336500
     47 HAL         3.4330    1.4110   -9.9090 ha        1 74X      0.183000
     48 HAJ         7.0610   -0.8780   -9.0520 ha        1 74X      0.153000
     49 HAK         7.7460   -0.6380  -11.4070 ha        1 74X      0.180000
     50 HAP2        4.8050    0.4110   -5.2740 hn        1 74X      0.470800
@<TRIPOS>BOND
     1    1    2 2   
     2    2    3 1   
     3    2    9 1   
     4    3    4 1   
     5    3   32 1   
     6    4    5 2   
     7    4    6 1   
     8    6    7 1   
     9    6    8 2   
    10    7   33 1   
    11    7   34 1   
    12    7   35 1   
    13    8    9 1   
    14    8   36 1   
    15    9   10 1   
    16   10   11 1   
    17   10   12 1   
    18   10   37 1   
    19   11   15 1   
    20   12   13 1   
    21   12   38 1   
    22   12   39 1   
    23   13   14 1   
    24   13   15 1   
    25   13   41 1   
    26   14   42 1   
    27   15   16 1   
    28   15   40 1   
    29   16   17 1   
    30   16   43 1   
    31   16   44 1   
    32   17   18 1   
    33   17   45 1   
    34   17   50 1   
    35   18   19 2   
    36   18   20 1   
    37   20   21 1   
    38   20   46 1   
    39   21   22 ar  
    40   21   23 ar  
    41   22   27 ar  
    42   22   47 1   
    43   23   24 ar  
    44   23   48 1   
    45   24   25 ar  
    46   24   49 1   
    47   25   26 1   
    48   25   27 ar  
    49   27   28 1   
    50   28   29 1   
    51   28   30 1   
    52   28   31 1   
@<TRIPOS>SUBSTRUCTURE
     1 74X         1 TEMP              0 ****  ****    0 ROOT
