@<TRIPOS>MOLECULE
74X
   51    53     1     0     0
SMALL
bcc


@<TRIPOS>ATOM
      1 OAC         4.5870   -0.7710   -4.0640 o         1 74X     -0.848500
      2 CAZ         4.0970   -0.3050   -2.9800 c         1 74X      0.854500
      3 NAR         4.9560    0.1230   -1.9840 n         1 74X     -0.565500
      4 CAY         4.5070    0.6470   -0.7380 c         1 74X      0.699700
      5 OAB         5.3610    0.9930    0.0790 o         1 74X     -0.512500
      6 CAU         3.0410    0.7210   -0.5640 cc        1 74X     -0.158400
      7 CAA         2.5490    1.2650    0.7170 c3        1 74X     -0.059900
      8 CAM         2.2200    0.2980   -1.5590 cd        1 74X     -0.016400
      9 NBD         2.7080   -0.2120   -2.7730 n         1 74X     -0.399000
     10 CBC         1.7320   -0.6290   -3.7800 c3        1 74X      0.331500
     11 OAS         2.4180   -1.1010   -4.9550 os        1 74X     -0.472600
     12 CAO         0.7990   -1.8010   -3.3620 c3        1 74X     -0.161400
     13 CBA         1.2220   -2.9990   -4.2400 c3        1 74X      0.146100
     14 OAD         1.4910   -4.1650   -3.4980 oh        1 74X     -0.589800
     15 CBB         2.5810   -2.5230   -4.8020 c3        1 74X      0.093100
     16 CAN         3.0460   -3.0650   -6.1440 c3        1 74X      0.116800
     17 NAP         4.4880   -2.6870   -6.3810 n4        1 74X     -0.625800
     18 CAT         4.7000   -1.5830   -7.3810 c         1 74X     -0.012600
     19 SAE         5.3530   -1.8430   -8.7190 s         1 74X      0.282600
     20 NAQ         4.2220   -0.2570   -6.8700 n4        1 74X     -0.466200
     21 CAV         4.6050    0.8570   -7.7380 ca        1 74X     -0.104400
     22 CAL         3.7380    1.2740   -8.7610 ca        1 74X     -0.042000
     23 CAJ         5.8110    1.5500   -7.4970 ca        1 74X     -0.060000
     24 CAK         6.1280    2.6460   -8.2830 ca        1 74X     -0.111000
     25 CAW         5.2690    3.0760   -9.3170 ca        1 74X      0.120400
     26 CLA         5.7210    4.4070  -10.2260 cl        1 74X      0.070600
     27 CAX         4.0700    2.3770   -9.5460 ca        1 74X     -0.157300
     28 CBE         3.0820    2.7920  -10.6550 c3        1 74X      0.697200
     29 FAG         1.9740    1.9800  -10.7160 f         1 74X     -0.205633
     30 FAH         2.5790    4.0540  -10.5010 f         1 74X     -0.205633
     31 FAF         3.6160    2.7410  -11.9130 f         1 74X     -0.205633
     32 HAR         5.9400    0.0330   -2.1460 hn        1 74X      0.363500
     33 HAA1        1.4320    1.2940    0.7480 hc        1 74X      0.079367
     34 HAA2        2.9440    2.3030    0.8680 hc        1 74X      0.079367
     35 HAA3        2.9200    0.6340    1.5660 hc        1 74X      0.079367
     36 HAM         1.1170    0.3360   -1.4730 h4        1 74X      0.186000
     37 HBC         1.1520    0.2820   -4.1160 h2        1 74X      0.116700
     38 HAO1        0.8960   -2.0610   -2.2770 hc        1 74X      0.106700
     39 HAO2       -0.2620   -1.5150   -3.5640 hc        1 74X      0.106700
     40 HBB         3.3590   -2.7280   -4.0040 h1        1 74X      0.112700
     41 HBA         0.4750   -3.2010   -5.0510 h1        1 74X      0.076700
     42 HAD         0.6550   -4.4760   -3.1210 ho        1 74X      0.452000
     43 HAN1        2.9790   -4.1950   -6.1140 hx        1 74X      0.132700
     44 HAN2        2.4140   -2.6790   -6.9900 hx        1 74X      0.132700
     45 HAP         4.9950   -3.5120   -6.7440 hn        1 74X      0.496300
     46 HAQ         4.5910   -0.0790   -5.9040 hn        1 74X      0.502800
     47 HAL         2.7820    0.7520   -8.9560 ha        1 74X      0.175000
     48 HAJ         6.5000    1.2490   -6.6890 ha        1 74X      0.169000
     49 HAK         7.0690    3.1980   -8.0940 ha        1 74X      0.203000
     50 HAP2        4.9080   -2.4170   -5.4640 hn        1 74X      0.496300
     51 HAQ2        3.1880   -0.2830   -6.7850 hn        1 74X      0.502800
@<TRIPOS>BOND
     1    1    2 2   
     2    2    3 1   
     3    2    9 1   
     4    3    4 1   
     5    3   32 1   
     6    4    5 2   
     7    4    6 1   
     8    6    7 1   
     9    6    8 2   
    10    7   33 1   
    11    7   34 1   
    12    7   35 1   
    13    8    9 1   
    14    8   36 1   
    15    9   10 1   
    16   10   11 1   
    17   10   12 1   
    18   10   37 1   
    19   11   15 1   
    20   12   13 1   
    21   12   38 1   
    22   12   39 1   
    23   13   14 1   
    24   13   15 1   
    25   13   41 1   
    26   14   42 1   
    27   15   16 1   
    28   15   40 1   
    29   16   17 1   
    30   16   43 1   
    31   16   44 1   
    32   17   18 1   
    33   17   45 1   
    34   17   50 1   
    35   18   19 2   
    36   18   20 1   
    37   20   21 1   
    38   20   46 1   
    39   20   51 1   
    40   21   22 ar  
    41   21   23 ar  
    42   22   27 ar  
    43   22   47 1   
    44   23   24 ar  
    45   23   48 1   
    46   24   25 ar  
    47   24   49 1   
    48   25   26 1   
    49   25   27 ar  
    50   27   28 1   
    51   28   29 1   
    52   28   30 1   
    53   28   31 1   
@<TRIPOS>SUBSTRUCTURE
     1 74X         1 TEMP              0 ****  ****    0 ROOT
