@<TRIPOS>MOLECULE
750
  101   105     1     0     0
SMALL
bcc


@<TRIPOS>ATOM
      1 C1         -1.2680   -2.2920    5.2070 c3        1 750     -0.110000
      2 O2         -1.4290   -2.0540    3.8300 os        1 750     -0.234000
      3 C3         -2.3370   -2.9190    3.1480 c3        1 750     -0.045000
      4 C4         -3.8060   -2.6710    3.5020 c3        1 750     -0.114000
      5 N5         -4.1590   -1.2700    3.5040 n7        1 750     -0.335000
      6 C6         -2.1600   -1.5190    6.0570 c2        1 750      0.274000
      7 C7         -5.5620   -0.9840    3.7130 c3        1 750     -0.078000
      8 C8         -6.0040   -1.0860    5.1770 c3        1 750     -0.040000
      9 O9         -5.2430   -0.1150    5.9110 os        1 750     -0.229000
     10 C10        -5.2760   -0.2800    7.2930 c3        1 750     -0.113000
     11 C11        -4.5370   -1.3940    7.9380 c2        1 750     -0.442000
     12 C12        -3.3730   -1.9660    8.1630 c2        1 750      0.135000
     13 C13        -3.0530   -3.0960    9.0300 c2        1 750     -0.028000
     14 C14        -3.8510   -3.8080    9.8350 c2        1 750     -0.116000
     15 C15        -5.9900   -1.3920    8.0330 c1        1 750      0.273000
     16 C16        -2.0550   -1.5360    7.5130 c3        1 750     -0.138000
     17 C17        -1.0500   -2.4590    8.1300 c2        1 750     -0.130000
     18 O18        -1.6780   -3.4170    8.9490 os        1 750     -0.132000
     19 C19         0.2980   -2.4350    8.0990 c2        1 750      0.012000
     20 O20         0.8990   -1.5280    7.2550 os        1 750     -0.259000
     21 N21         3.4870   -3.3710    9.8970 n8        1 750     -0.332000
     22 C22         4.5160   -2.6510    9.1770 c3        1 750     -0.050000
     23 C23         4.2150   -1.1550    9.0040 c3        1 750     -0.154000
     24 C24         2.7720   -0.8190    8.6640 c3        1 750     -0.127000
     25 C25         2.6090    0.6860    8.5740 c3        1 750     -0.216000
     26 C26         2.3370   -1.4760    7.3600 c3        1 750     -0.014000
     27 C27         5.9190   -2.7670    9.8290 c2        1 750      0.260000
     28 O28         6.0500   -3.2310   10.9840 o         1 750     -0.407000
     29 N29         7.0080   -2.3720    9.1090 nt        1 750     -0.418000
     30 C30         9.1100   -3.7760   12.2010 c2        1 750     -0.236000
     31 C33        11.1380   -2.1930   12.4720 c3        1 750     -0.084000
     32 N34        11.9130   -3.1810   13.1900 n         1 750     -0.297000
     33 C35        11.9700   -4.5110   12.6330 c3        1 750     -0.034000
     34 C36        10.8280   -5.4360   13.0490 c3        1 750     -0.168000
     35 C37         9.4680   -4.9150   12.7970 c2        1 750     -0.100000
     36 C38        12.4280   -2.8550   14.4260 c2        1 750      0.307000
     37 O39        12.2780   -1.7070   14.9020 o         1 750     -0.391000
     38 C40        13.2600   -3.8870   15.1820 c3        1 750     -0.156000
     39 C41        13.5540   -3.4480   16.5780 c2        1 750     -0.149000
     40 C42        14.0330   -2.1360   16.8170 c2        1 750      0.192000
     41 C43        14.2690   -1.6820   18.1340 c2        1 750     -0.211000
     42 C44        14.0570   -2.5000   19.2080 c2        1 750      0.039000
     43 C45        13.6270   -3.9070   19.0370 c3        1 750     -0.112000
     44 C46        13.3310   -4.2940   17.6380 c2        1 750      0.077000
     45 C47        12.4830   -4.2340   19.9770 c2        1 750     -0.028000
     46 C48        12.8410   -4.4270   21.4300 c3        1 750     -0.173000
     47 C49        11.7200   -5.0500   22.1960 c2        1 750     -0.097000
     48 C50        10.4720   -5.1400   21.6770 c2        1 750     -0.221000
     49 C51        10.2380   -4.4260   20.4360 c1        1 750      0.090000
     50 N52        11.2540   -4.3270   19.5370 n2        1 750     -0.155000
     51 C31         9.9870   -2.7430   11.6410 c2        1 750      0.261000
     52 HC11       -1.3190   -3.3920    5.4820 h1        1 750      0.210500
     53 HC12       -0.1900   -1.9610    5.4340 h1        1 750      0.210500
     54 HC31       -2.0790   -3.9920    3.3510 h1        1 750      0.122000
     55 HC32       -2.1300   -2.6740    2.0680 h1        1 750      0.122000
     56 HC41       -4.0080   -3.0710    4.5370 h1        1 750      0.083500
     57 HC42       -4.4280   -3.2850    2.7840 h1        1 750      0.083500
     58 HC61       -3.8250   -0.8160    2.6740 hn        1 750      0.186000
     59 HC62       -2.9430   -0.8590    5.5950 ha        1 750      0.244000
     60 HC71       -5.7480    0.0750    3.3710 h1        1 750      0.106000
     61 HC72       -6.2380   -1.6700    3.1230 h1        1 750      0.106000
     62 HC81       -7.0930   -0.8290    5.2600 h1        1 750      0.093000
     63 HC82       -5.8260   -2.1110    5.5970 h1        1 750      0.093000
     64 H11        -5.1830    0.7340    7.7520 h1        1 750      0.189000
     65 H14        -4.9260   -3.5890    9.9060 ha        1 750      0.163000
     66 H15        -3.4650   -4.6350   10.4480 ha        1 750      0.163000
     67 H16        -1.8300   -0.4610    7.8350 hc        1 750      0.224000
     68 H21         0.9370   -3.1190    8.6850 h4        1 750      0.206000
     69 H22         3.3330   -2.9480   10.7940 hn        1 750      0.162000
     70 H231        4.5840   -3.1320    8.1530 h1        1 750      0.107000
     71 H232        4.8840   -0.7580    8.1950 hc        1 750      0.099500
     72 H24         4.4790   -0.6170    9.9550 hc        1 750      0.099500
     73 H251        2.1010   -1.1940    9.4880 hc        1 750      0.112000
     74 H252        1.5620    0.9390    8.2790 hc        1 750      0.085000
     75 H253        2.8250    1.1590    9.5630 hc        1 750      0.085000
     76 H261        3.3060    1.1180    7.8160 hc        1 750      0.085000
     77 H262        2.7480   -2.5140    7.2620 h1        1 750      0.112000
     78 H263        2.6200   -0.8540    6.4680 h1        1 750      0.112000
     79 H29         6.9110   -1.9790    8.2090 hn        1 750      0.240000
     80 H30         8.0290   -3.5520   12.0470 ha        1 750      0.193000
     81 H331       10.6960   -1.4490   13.2020 h1        1 750      0.137500
     82 H332       11.8360   -1.6280   11.7860 h1        1 750      0.137500
     83 H351       12.9200   -5.3110   17.4860 ha        1 750      0.189000
     84 H352       12.9490   -4.9930   12.9170 h1        1 750      0.106500
     85 H361       11.9630   -4.4070   11.5070 h1        1 750      0.106500
     86 H362       10.9540   -6.4020   12.4830 hc        1 750      0.106000
     87 H371       10.9150   -5.6820   14.1430 hc        1 750      0.106000
     88 H372        8.6690   -5.5990   13.1460 ha        1 750      0.143000
     89 H401       12.7190   -4.8730   15.1980 hc        1 750      0.136000
     90 H402       14.2280   -4.0330   14.6260 hc        1 750      0.136000
     91 H42        14.2060   -1.4470   15.9630 ha        1 750      0.214000
     92 H43        14.6100   -0.6390   18.2800 ha        1 750      0.198000
     93 H44        14.2180   -2.1470   20.2430 ha        1 750      0.183000
     94 H46        14.5130   -4.5600   19.3640 hc        1 750      0.213000
     95 H48        13.1150   -3.4470   21.9100 hc        1 750      0.138500
     96 H49        13.7420   -5.0980   21.4950 hc        1 750      0.138500
     97 H50        11.9620   -5.3720   23.2220 ha        1 750      0.171000
     98 H51         9.6200   -5.5940   22.2030 ha        1 750      0.193000
     99 O32         9.7680   -2.2310   10.5350 o         1 750     -0.298000
    100 H212        3.7840   -4.3190   10.0490 hn        1 750      0.162000
    101 H292        7.9160   -2.4250    9.5120 hn        1 750      0.240000
@<TRIPOS>BOND
     1    1    2 1   
     2    1    6 1   
     3    1   52 1   
     4    1   53 1   
     5    2    3 1   
     6    3    4 1   
     7    3   54 1   
     8    3   55 1   
     9    4    5 1   
    10    4   56 1   
    11    4   57 1   
    12    5    7 1   
    13    5   58 1   
    14    6   16 1   
    15    6   59 1   
    16    7    8 1   
    17    7   60 1   
    18    7   61 1   
    19    8    9 1   
    20    8   62 1   
    21    8   63 1   
    22    9   10 1   
    23   10   11 1   
    24   10   15 1   
    25   10   64 1   
    26   11   12 1   
    27   11   15 1   
    28   12   13 1   
    29   12   16 1   
    30   13   14 1   
    31   13   18 1   
    32   14   65 1   
    33   14   66 1   
    34   16   17 1   
    35   16   67 1   
    36   17   18 1   
    37   17   19 1   
    38   19   20 1   
    39   19   68 1   
    40   20   26 1   
    41   21   22 1   
    42   21   69 1   
    43   21  100 1   
    44   22   23 1   
    45   22   27 1   
    46   22   70 1   
    47   23   24 1   
    48   23   71 1   
    49   23   72 1   
    50   24   25 1   
    51   24   26 1   
    52   24   73 1   
    53   25   74 1   
    54   25   75 1   
    55   25   76 1   
    56   26   77 1   
    57   26   78 1   
    58   27   28 1   
    59   27   29 1   
    60   29   79 1   
    61   29  101 1   
    62   30   35 1   
    63   30   51 1   
    64   30   80 1   
    65   31   32 1   
    66   31   51 1   
    67   31   81 1   
    68   31   82 1   
    69   32   33 1   
    70   32   36 1   
    71   33   34 1   
    72   33   84 1   
    73   33   85 1   
    74   34   35 1   
    75   34   86 1   
    76   34   87 1   
    77   35   88 1   
    78   36   37 1   
    79   36   38 1   
    80   38   39 1   
    81   38   89 1   
    82   38   90 1   
    83   39   40 1   
    84   39   44 1   
    85   40   41 1   
    86   40   91 1   
    87   41   42 1   
    88   41   92 1   
    89   42   43 1   
    90   42   93 1   
    91   43   44 1   
    92   43   45 1   
    93   43   94 1   
    94   44   83 1   
    95   45   46 1   
    96   45   50 1   
    97   46   47 1   
    98   46   95 1   
    99   46   96 1   
   100   47   48 1   
   101   47   97 1   
   102   48   49 1   
   103   48   98 1   
   104   49   50 1   
   105   51   99 1   
@<TRIPOS>SUBSTRUCTURE
     1 750         1 TEMP              0 ****  ****    0 ROOT
