@<TRIPOS>MOLECULE
750
   99   104     1     0     0
SMALL
bcc


@<TRIPOS>ATOM
      1 C1         10.7360   -2.5260    3.5260 c3        1 750      0.126400
      2 O2         10.5080   -3.9090    3.7710 os        1 750     -0.415600
      3 C3          9.2740   -4.3530    3.2200 c3        1 750      0.126400
      4 C4          9.1950   -4.0720    1.7150 c3        1 750      0.136800
      5 N5          9.4700   -2.6780    1.3940 n3        1 750     -0.731600
      6 C6         10.6900   -2.1980    2.0290 c3        1 750      0.136800
      7 C7          9.4320   -2.4080   -0.0330 c3        1 750      0.170800
      8 C8          8.0100   -2.1750   -0.5650 c3        1 750      0.129400
      9 O9          7.7520   -0.7780   -0.3870 os        1 750     -0.326900
     10 C10         6.4320   -0.3880   -0.5210 ca        1 750      0.106100
     11 C11         6.1330    0.8580    0.0570 ca        1 750     -0.098000
     12 C12         4.8380    1.3370   -0.0880 ca        1 750     -0.096800
     13 C13         3.8730    0.5560   -0.8000 ca        1 750      0.049100
     14 C14         4.1650   -0.6790   -1.3670 ca        1 750     -0.094000
     15 C15         5.4700   -1.1440   -1.2200 ca        1 750     -0.168000
     16 C16         4.1350    2.5330    0.3390 cc        1 750     -0.083200
     17 C17         2.8410    2.4150   -0.1170 cd        1 750     -0.041100
     18 O18         2.6390    1.2090   -0.8270 os        1 750     -0.199200
     19 C19         1.7000    3.3370    0.0410 c         1 750      0.704300
     20 O20         1.8350    4.3910    0.6990 o         1 750     -0.606100
     21 N21         0.5130    3.0130   -0.5840 n         1 750     -0.543900
     22 C22        -0.6840    3.7900   -0.3930 c3        1 750      0.043700
     23 C23        -1.2570    4.3890   -1.6880 c3        1 750     -0.087400
     24 C24        -0.3100    5.3540   -2.3840 c3        1 750     -0.063700
     25 C25        -0.9600    5.8600   -3.6580 c3        1 750     -0.097600
     26 C26         0.0720    6.5160   -1.4920 c3        1 750     -0.097600
     27 C27        -1.8140    2.9050    0.1990 c         1 750      0.635100
     28 O28        -1.9910    1.7340   -0.1900 o         1 750     -0.607100
     29 N29        -2.5940    3.4720    1.1880 n         1 750     -0.547900
     30 C30        -3.7630    2.8030    1.7110 c3        1 750      0.006700
     31 C33        -6.3000    2.4440    1.1450 c3        1 750     -0.005000
     32 N34        -6.2850    1.3400    2.0580 n         1 750     -0.475800
     33 C35        -6.0620    1.6610    3.4530 c3        1 750      0.085000
     34 C36        -4.5960    1.7690    3.8700 c3        1 750     -0.109400
     35 C37        -3.8670    2.9340    3.2450 c3        1 750     -0.082400
     36 C38        -6.1640    0.0050    1.6500 c         1 750      0.659100
     37 O39        -6.0080   -0.8710    2.5210 o         1 750     -0.584100
     38 C40        -6.2890   -0.3200    0.1730 c3        1 750     -0.100100
     39 C41        -6.2890   -1.7770   -0.1340 ca        1 750     -0.089300
     40 C42        -7.0800   -2.6720    0.5930 ca        1 750     -0.089000
     41 C43        -7.1040   -4.0230    0.2480 ca        1 750     -0.136000
     42 C44        -6.3530   -4.4880   -0.8280 ca        1 750     -0.110000
     43 C45        -5.5610   -3.5980   -1.5660 cp        1 750     -0.150500
     44 C46        -5.5220   -2.2450   -1.2080 ca        1 750     -0.082000
     45 C47        -4.7830   -4.0950   -2.7150 cp        1 750      0.461800
     46 C48        -5.3650   -5.0650   -3.5640 ca        1 750     -0.239300
     47 C49        -4.6330   -5.5440   -4.6510 ca        1 750     -0.093000
     48 C50        -3.3470   -5.0520   -4.8710 ca        1 750     -0.249300
     49 C51        -2.8480   -4.0830   -3.9800 ca        1 750      0.397200
     50 N52        -3.5320   -3.6060   -2.9280 nb        1 750     -0.656000
     51 C31        -5.0650    3.3360    1.1090 c         1 750      0.523100
     52 HC11       11.7650   -2.3360    3.9300 h1        1 750      0.055200
     53 HC12        9.9810   -1.9160    4.0880 h1        1 750      0.055200
     54 HC31        9.2650   -5.4580    3.4070 h1        1 750      0.055200
     55 HC32        8.4220   -3.8610    3.7600 h1        1 750      0.055200
     56 HC41        8.1540   -4.3090    1.3590 h1        1 750      0.039950
     57 HC42        9.9100   -4.7690    1.1850 h1        1 750      0.039950
     58 HC61       11.6100   -2.6310    1.5400 h1        1 750      0.039950
     59 HC62       10.7230   -1.0790    1.9090 h1        1 750      0.039950
     60 HC71        9.8780   -3.2540   -0.6330 h1        1 750      0.049700
     61 HC72       10.0320   -1.4770   -0.2490 h1        1 750      0.049700
     62 HC81        7.2410   -2.7880   -0.0290 h1        1 750      0.044200
     63 HC82        7.9830   -2.4050   -1.6640 h1        1 750      0.044200
     64 H11         6.9070    1.4200    0.5970 ha        1 750      0.160000
     65 H14         3.4030   -1.2570   -1.9060 ha        1 750      0.155000
     66 H15         5.7430   -2.1130   -1.6610 ha        1 750      0.142000
     67 H16         4.5540    3.3580    0.9120 ha        1 750      0.183000
     68 H21         0.4120    2.1260   -1.0260 hn        1 750      0.342500
     69 H22        -0.4380    4.6390    0.3180 h1        1 750      0.103700
     70 H231       -2.2040    4.9280   -1.4180 hc        1 750      0.057200
     71 H232       -1.5240    3.5610   -2.3960 hc        1 750      0.057200
     72 H24         0.6290    4.8000   -2.6650 hc        1 750      0.056700
     73 H251       -0.2570    6.5300   -4.2080 hc        1 750      0.038367
     74 H252       -1.2300    5.0060   -4.3250 hc        1 750      0.038367
     75 H253       -1.8870    6.4350   -3.4240 hc        1 750      0.038367
     76 H261        0.7170    6.1680   -0.6470 hc        1 750      0.038367
     77 H262        0.6430    7.2770   -2.0760 hc        1 750      0.038367
     78 H263       -0.8380    7.0080   -1.0710 hc        1 750      0.038367
     79 H29        -2.5460    4.4540    1.3350 hn        1 750      0.319500
     80 H30        -3.6690    1.7060    1.4400 h1        1 750      0.113700
     81 H331       -6.4680    2.0940    0.0860 h1        1 750      0.082200
     82 H332       -7.1750    3.1100    1.4160 h1        1 750      0.082200
     83 H351       -6.5420    0.8480    4.0730 h1        1 750      0.064200
     84 H352       -6.5860    2.6330    3.6760 h1        1 750      0.064200
     85 H361       -4.0670    0.8080    3.6260 hc        1 750      0.065200
     86 H362       -4.5730    1.8910    4.9860 hc        1 750      0.065200
     87 H371       -2.8350    2.9790    3.6860 hc        1 750      0.057700
     88 H372       -4.3810    3.8970    3.5020 hc        1 750      0.057700
     89 H401       -7.2510    0.1160   -0.2160 hc        1 750      0.075700
     90 H402       -5.4340    0.1770   -0.3650 hc        1 750      0.075700
     91 H42        -7.6590   -2.3120    1.4580 ha        1 750      0.147000
     92 H43        -7.7160   -4.7240    0.8340 ha        1 750      0.135000
     93 H44        -6.3700   -5.5570   -1.0890 ha        1 750      0.134000
     94 H46        -4.8820   -1.5480   -1.7710 ha        1 750      0.150000
     95 H48        -6.3840   -5.4270   -3.3690 ha        1 750      0.145000
     96 H49        -5.0670   -6.2980   -5.3240 ha        1 750      0.138000
     97 H50        -2.7370   -5.4030   -5.7130 ha        1 750      0.143000
     98 H51        -1.8350   -3.6620   -4.1150 h4        1 750      0.022100
     99 O32        -5.1510    4.4570    0.5980 o         1 750     -0.531100
@<TRIPOS>BOND
     1    1    2 1   
     2    1    6 1   
     3    1   52 1   
     4    1   53 1   
     5    2    3 1   
     6    3    4 1   
     7    3   54 1   
     8    3   55 1   
     9    4    5 1   
    10    4   56 1   
    11    4   57 1   
    12    5    6 1   
    13    5    7 1   
    14    6   58 1   
    15    6   59 1   
    16    7    8 1   
    17    7   60 1   
    18    7   61 1   
    19    8    9 1   
    20    8   62 1   
    21    8   63 1   
    22    9   10 1   
    23   10   11 ar  
    24   10   15 ar  
    25   11   12 ar  
    26   11   64 1   
    27   12   13 ar  
    28   12   16 1   
    29   13   14 ar  
    30   13   18 1   
    31   14   15 ar  
    32   14   65 1   
    33   15   66 1   
    34   16   17 2   
    35   16   67 1   
    36   17   18 1   
    37   17   19 1   
    38   19   20 2   
    39   19   21 1   
    40   21   22 1   
    41   21   68 1   
    42   22   23 1   
    43   22   27 1   
    44   22   69 1   
    45   23   24 1   
    46   23   70 1   
    47   23   71 1   
    48   24   25 1   
    49   24   26 1   
    50   24   72 1   
    51   25   73 1   
    52   25   74 1   
    53   25   75 1   
    54   26   76 1   
    55   26   77 1   
    56   26   78 1   
    57   27   28 2   
    58   27   29 1   
    59   29   30 1   
    60   29   79 1   
    61   30   35 1   
    62   30   51 1   
    63   30   80 1   
    64   31   32 1   
    65   31   51 1   
    66   31   81 1   
    67   31   82 1   
    68   32   33 1   
    69   32   36 1   
    70   33   34 1   
    71   33   83 1   
    72   33   84 1   
    73   34   35 1   
    74   34   85 1   
    75   34   86 1   
    76   35   87 1   
    77   35   88 1   
    78   36   37 2   
    79   36   38 1   
    80   38   39 1   
    81   38   89 1   
    82   38   90 1   
    83   39   40 ar  
    84   39   44 ar  
    85   40   41 ar  
    86   40   91 1   
    87   41   42 ar  
    88   41   92 1   
    89   42   43 ar  
    90   42   93 1   
    91   43   44 ar  
    92   43   45 1   
    93   44   94 1   
    94   45   46 ar  
    95   45   50 ar  
    96   46   47 ar  
    97   46   95 1   
    98   47   48 ar  
    99   47   96 1   
   100   48   49 ar  
   101   48   97 1   
   102   49   50 ar  
   103   49   98 1   
   104   51   99 2   
@<TRIPOS>SUBSTRUCTURE
     1 750         1 TEMP              0 ****  ****    0 ROOT
