@<TRIPOS>MOLECULE
750
   99    92     1     0     0
SMALL
bcc


@<TRIPOS>ATOM
      1 C1          7.0590  -10.3060    0.0450 c3        1 750     -0.057000
      2 O2          8.2860   -9.7770    0.5010 os        1 750     -0.270000
      3 C3          8.2050   -8.3990    0.8090 c3        1 750     -0.057000
      4 C4          7.0560   -8.0850    1.7450 c3        1 750     -0.112000
      5 N5          5.8300   -8.6140    1.2880 n3        1 750     -0.244000
      6 C6          5.9130   -9.9920    0.9790 c3        1 750     -0.112000
      7 C7          5.3940   -7.8840    0.1140 c3        1 750     -0.077000
      8 C8          4.3550   -6.8370    0.5180 c3        1 750     -0.025000
      9 O9          4.6280   -5.6130   -0.1550 os        1 750     -0.222000
     10 C10         3.9560   -4.4790    0.4000 c2        1 750      0.065000
     11 C11         3.6180   -4.0230    1.6670 c2        1 750     -0.152000
     12 C12         3.2960   -2.6620    1.8650 c1        1 750     -0.080000
     13 C13         3.3170   -1.7870    0.7990 c1        1 750     -0.018500
     14 C14         3.6600   -2.2530   -0.4900 c1        1 750     -0.102500
     15 C15         3.9770   -3.5920   -0.6830 c1        1 750     -0.126000
     16 C16         2.8670   -1.9560    2.9950 c1        1 750     -0.099000
     17 C17         2.6240   -0.6390    2.6130 c1        1 750     -0.067000
     18 O18         2.8990   -0.5270    1.2640 o         1 750     -0.108000
     19 C19         1.9910    0.3960    3.6050 c1        1 750      0.378000
     20 O20         1.6970    0.0510    4.7490 o         1 750     -0.363000
     21 N21         1.7490    1.7630    3.1740 n3        1 750     -0.357000
     22 C22         0.6960    2.4790    3.7160 c3        1 750      0.019000
     23 C23         1.2330    3.7480    4.4060 c3        1 750     -0.169000
     24 C24         0.8040    3.7460    5.8730 c3        1 750     -0.109000
     25 C25         1.9200    3.1910    6.7210 c3        1 750     -0.211000
     26 C26         0.4840    5.1970    6.3240 c3        1 750     -0.211000
     27 C27        -0.2820    2.8760    2.6000 c2        1 750      0.284000
     28 O28        -0.1330    3.9430    2.0020 o         1 750     -0.377000
     29 N29        -1.3000    1.9620    2.1870 n         1 750     -0.365000
     30 C30        -2.1340    2.2810    1.0960 c3        1 750     -0.016000
     31 O32        -3.8300    2.5920    2.7120 o         1 750     -0.295000
     32 C33        -4.1090    3.6430    0.5750 c3        1 750     -0.073000
     33 N34        -3.9970    2.9560   -0.6950 n         1 750     -0.333000
     34 C35        -4.6560    1.6740   -0.6490 c3        1 750     -0.027000
     35 C36        -3.9200    0.7210    0.2740 c3        1 750     -0.171000
     36 C37        -2.4250    1.0250    0.2920 c3        1 750     -0.168000
     37 C38        -3.3030    3.4960   -1.8760 c2        1 750      0.313000
     38 O39        -2.7720    4.5960   -1.8190 o         1 750     -0.370000
     39 C40        -3.4150    2.7560   -3.2460 c3        1 750     -0.138000
     40 C41        -3.7810    3.7710   -4.3530 c2        1 750     -0.090000
     41 C42        -2.8500    4.7120   -4.7640 c2        1 750     -0.108000
     42 C43        -3.1500    5.5750   -5.8130 c1        1 750     -0.131000
     43 C44        -4.3790    5.4940   -6.4490 c1        1 750     -0.102500
     44 C45        -5.3140    4.5510   -6.0390 c1        1 750     -0.018500
     45 C46        -5.0180    3.6900   -4.9920 c1        1 750     -0.091000
     46 C47        -6.5860    4.5290   -6.6270 c1        1 750      0.022000
     47 C48        -6.7970    3.8120   -7.7950 c1        1 750     -0.127250
     48 C49        -8.0360    3.8250   -8.3940 c1        1 750     -0.127250
     49 C50        -9.0580    4.5460   -7.8330 c1        1 750     -0.127250
     50 C51        -8.8400    5.2620   -6.6600 c1        1 750     -0.127250
     51 N52        -7.6090    5.2470   -6.0700 n1        1 750     -0.139000
     52 C31        -3.4330    2.7600    1.5940 c2        1 750      0.208000
     53 HC11        7.1440  -11.2870   -0.0370 h1        1 750      0.090750
     54 HC12        6.8580   -9.9260   -0.8470 h1        1 750      0.090750
     55 HC31        9.0420   -8.1190    1.2310 h1        1 750      0.090750
     56 HC32        8.0830   -7.8920   -0.0260 h1        1 750      0.090750
     57 HC41        6.9720   -7.1190    1.8290 h1        1 750      0.105250
     58 HC42        7.2560   -8.4650    2.6300 h1        1 750      0.105250
     59 HC61        5.0760  -10.2740    0.5580 h1        1 750      0.105250
     60 HC62        6.0360  -10.5020    1.8200 h1        1 750      0.105250
     61 HC71        4.9940   -8.5100   -0.5320 h1        1 750      0.087500
     62 HC72        6.1590   -7.4410   -0.2960 h1        1 750      0.087500
     63 HC81        3.4680   -7.1490    0.2740 h1        1 750      0.091000
     64 HC82        4.3950   -6.6960    1.4740 h1        1 750      0.091000
     65 H11         3.5000   -4.6560    2.3910 ha        1 750      0.150000
     66 H14         3.6750   -1.6460   -1.2290 ha        1 750      0.146500
     67 H15         4.2910   -3.9000   -1.5600 ha        1 750      0.155000
     68 H16         2.7560   -2.3260    3.9010 DU        1 750      0.183000
     69 H21         2.3270    2.1680    2.6230 hn        1 750      0.252000
     70 H22         0.2290    1.9220    4.3770 h1        1 750      0.140000
     71 H231        2.2370    3.7620    4.3520 hc        1 750      0.103500
     72 H232        0.8720    4.5390    3.9610 hc        1 750      0.103500
     73 H24         0.0160    3.1960    5.9760 hc        1 750      0.090000
     74 H251        2.4460    2.5520    6.1910 hc        1 750      0.077000
     75 H252        2.5020    3.9280    7.0190 hc        1 750      0.077000
     76 H253        1.5410    2.7360    7.5030 hc        1 750      0.077000
     77 H261        0.0060    5.6700    5.5990 hc        1 750      0.077000
     78 H262        1.3170    5.6660    6.5250 hc        1 750      0.077000
     79 H263       -0.0900    5.1720    7.1400 hc        1 750      0.077000
     80 H29        -1.3980    1.1850    2.6100 hn        1 750      0.244000
     81 H30        -1.5920    2.9470    0.6430 h1        1 750      0.150000
     82 H331       -5.0040    3.9230    0.8300 h1        1 750      0.134000
     83 H332       -3.6530    4.5100    0.5170 h1        1 750      0.134000
     84 H351       -4.6810    1.2870   -1.5640 h1        1 750      0.090500
     85 H352       -5.5840    1.7940   -0.3210 h1        1 750      0.090500
     86 H361       -4.0570   -0.2070   -0.0410 hc        1 750      0.099000
     87 H362       -4.2830    0.8100    1.1940 hc        1 750      0.099000
     88 H371       -2.1120    1.1510   -0.6230 hc        1 750      0.100000
     89 H372       -1.9470    0.2640    0.6960 hc        1 750      0.100000
     90 H401       -4.1060    2.0740   -3.1910 hc        1 750      0.121000
     91 H402       -2.5520    2.3320   -3.4620 hc        1 750      0.121000
     92 H42        -1.9870    4.7690   -4.3210 ha        1 750      0.152000
     93 H43        -2.4950    6.2380   -6.1030 ha        1 750      0.138000
     94 H44        -4.5880    6.1010   -7.1860 ha        1 750      0.146500
     95 H46        -5.6800    3.0220   -4.7010 ha        1 750      0.147000
     96 H48        -6.0570    3.2920   -8.1980 ha        1 750      0.147750
     97 H49        -8.1880    3.3200   -9.2190 ha        1 750      0.147750
     98 H50        -9.9490    4.5570   -8.2590 ha        1 750      0.147750
     99 H51        -9.5770    5.7840   -6.2530 ha        1 750      0.147750
@<TRIPOS>BOND
     1    1    2 1   
     2    1    6 1   
     3    1   53 1   
     4    1   54 1   
     5    2    3 1   
     6    3    4 1   
     7    3   55 1   
     8    3   56 1   
     9    4    5 1   
    10    4   57 1   
    11    4   58 1   
    12    5    6 1   
    13    5    7 1   
    14    6   59 1   
    15    6   60 1   
    16    7    8 1   
    17    7   61 1   
    18    7   62 1   
    19    8    9 1   
    20    8   63 1   
    21    8   64 1   
    22    9   10 1   
    23   10   11 1   
    24   10   15 1   
    25   11   12 1   
    26   11   65 1   
    27   13   14 1   
    28   14   66 1   
    29   15   67 1   
    30   16   17 1   
    31   17   18 1   
    32   19   20 1   
    33   19   21 1   
    34   21   22 1   
    35   21   69 1   
    36   22   23 1   
    37   22   27 1   
    38   22   70 1   
    39   23   24 1   
    40   23   71 1   
    41   23   72 1   
    42   24   25 1   
    43   24   26 1   
    44   24   73 1   
    45   25   74 1   
    46   25   75 1   
    47   25   76 1   
    48   26   77 1   
    49   26   78 1   
    50   26   79 1   
    51   27   28 1   
    52   27   29 1   
    53   29   30 1   
    54   29   80 1   
    55   30   36 1   
    56   30   52 1   
    57   30   81 1   
    58   31   52 1   
    59   32   33 1   
    60   32   52 1   
    61   32   82 1   
    62   32   83 1   
    63   33   34 1   
    64   33   37 1   
    65   34   35 1   
    66   34   84 1   
    67   34   85 1   
    68   35   36 1   
    69   35   86 1   
    70   35   87 1   
    71   36   88 1   
    72   36   89 1   
    73   37   38 1   
    74   37   39 1   
    75   39   40 1   
    76   39   90 1   
    77   39   91 1   
    78   40   41 1   
    79   40   45 1   
    80   41   42 1   
    81   41   92 1   
    82   42   93 1   
    83   43   44 1   
    84   43   94 1   
    85   45   95 1   
    86   46   51 1   
    87   47   48 1   
    88   47   96 1   
    89   48   97 1   
    90   49   50 1   
    91   49   98 1   
    92   50   99 1   
@<TRIPOS>SUBSTRUCTURE
     1 750         1 TEMP              0 ****  ****    0 ROOT
