@<TRIPOS>MOLECULE
751
   65    69     1     0     0
SMALL
bcc


@<TRIPOS>ATOM
      1 C28        -0.2880    0.9750   -0.0040 c3        1 751      0.112700
      2 O4          1.1110    1.2160    0.0920 os        1 751     -0.324900
      3 C25         1.7170    0.8270    1.2700 ca        1 751      0.132100
      4 C26         3.0940    1.1140    1.3490 ca        1 751     -0.179500
      5 C27         3.7970    0.7570    2.4910 ca        1 751     -0.082500
      6 C24         1.0600    0.1910    2.3300 ca        1 751     -0.179500
      7 C23         1.7830   -0.1560    3.4690 ca        1 751     -0.082500
      8 C22         3.1520    0.1180    3.5640 cp        1 751     -0.081000
      9 C18         3.9040   -0.2510    4.7610 cp        1 751     -0.050000
     10 C17         3.3390   -0.0920    6.0330 ca        1 751     -0.012000
     11 C19         5.2030   -0.7680    4.6550 ca        1 751     -0.062000
     12 C20         5.9200   -1.1090    5.8010 ca        1 751     -0.155000
     13 C21         5.3450   -0.9440    7.0580 ca        1 751     -0.020000
     14 C16         4.0460   -0.4390    7.1880 ca        1 751     -0.374500
     15 S1          3.3650   -0.2100    8.7180 sy        1 751      1.509200
     16 O1          4.4100    0.0520    9.6320 o         1 751     -0.651300
     17 O2          2.3480    0.7640    8.6120 o         1 751     -0.651300
     18 N1          2.7000   -1.6580    9.0530 n3        1 751     -0.817500
     19 C4          3.4320   -2.7230    9.6890 c3        1 751      0.222300
     20 C3          2.6760   -3.3720   10.8710 c3        1 751      0.163800
     21 C1          1.3290   -1.9800    8.7540 c3        1 751      0.222300
     22 C2          0.5720   -2.6150    9.9430 c3        1 751      0.163800
     23 N2          1.3100   -3.7410   10.5070 nh        1 751     -0.717300
     24 C5          0.6340   -4.4750   11.5320 ca        1 751      0.497900
     25 N3         -0.3890   -3.9040   12.2430 nb        1 751     -0.674000
     26 C6         -1.0050   -4.6660   13.1580 ca        1 751      0.302900
     27 C7         -0.6160   -6.0050   13.4090 ca        1 751      0.263900
     28 N4          0.3800   -6.5900   12.7240 nb        1 751     -0.616000
     29 C8          1.0090   -5.8530   11.7750 cp        1 751      0.355500
     30 C9          2.0760   -6.5060   10.9980 cp        1 751     -0.178500
     31 C10         3.1860   -7.0540   11.6590 ca        1 751     -0.063000
     32 C11         4.1890   -7.6920   10.9410 ca        1 751     -0.190000
     33 C12         4.0740   -7.7960    9.5410 ca        1 751      0.133100
     34 O3          5.1240   -8.4430    8.9200 os        1 751     -0.326900
     35 C15         5.0080   -8.6220    7.5130 c3        1 751      0.112700
     36 C13         2.9640   -7.2640    8.8740 ca        1 751     -0.190000
     37 C14         1.9680   -6.6220    9.6090 ca        1 751     -0.063000
     38 H281       -0.5030   -0.1200    0.0470 h1        1 751      0.046033
     39 H282       -0.8400    1.5210    0.7980 h1        1 751      0.046033
     40 H283       -0.5520    1.3820   -1.0130 h1        1 751      0.046033
     41 H26         3.5900    1.6180    0.5080 ha        1 751      0.146000
     42 H24        -0.0130   -0.0360    2.2770 ha        1 751      0.146000
     43 H27         4.8710    0.9890    2.5610 ha        1 751      0.135500
     44 H23         1.2670   -0.6590    4.3020 ha        1 751      0.135500
     45 H17         2.3260    0.3400    6.1300 ha        1 751      0.157000
     46 H19         5.6570   -0.9060    3.6610 ha        1 751      0.140000
     47 H20         6.9420   -1.5070    5.7110 ha        1 751      0.142000
     48 H21         5.9210   -1.1960    7.9660 ha        1 751      0.150000
     49 H41C        3.6620   -3.5240    8.9280 h1        1 751      0.059700
     50 H42C        4.4050   -2.3180   10.0920 h1        1 751      0.059700
     51 H11C        0.7790   -1.0360    8.4690 h1        1 751      0.059700
     52 H12C        1.2960   -2.6940    7.8810 h1        1 751      0.059700
     53 H31C        2.6900   -2.6620   11.7470 h1        1 751      0.057950
     54 H32C        3.2310   -4.3090   11.1620 h1        1 751      0.057950
     55 H21C       -0.4140   -2.9970    9.5610 h1        1 751      0.057950
     56 H22C        0.3690   -1.8130   10.7090 h1        1 751      0.057950
     57 H6         -1.8300   -4.1900   13.7150 h4        1 751      0.034100
     58 H7         -1.1190   -6.6200   14.1720 h4        1 751      0.036100
     59 H10         3.2610   -6.9850   12.7550 ha        1 751      0.144500
     60 H14         1.0940   -6.2020    9.0890 ha        1 751      0.144500
     61 H11         5.0650   -8.1230   11.4450 ha        1 751      0.145500
     62 H13         2.8630   -7.3490    7.7840 ha        1 751      0.145500
     63 H151        4.0990   -9.2220    7.2640 h1        1 751      0.045033
     64 H152        4.9800   -7.6350    6.9920 h1        1 751      0.045033
     65 H153        5.9380   -9.1840    7.2450 h1        1 751      0.045033
@<TRIPOS>BOND
     1    1    2 1   
     2    1   38 1   
     3    1   39 1   
     4    1   40 1   
     5    2    3 1   
     6    3    4 ar  
     7    3    6 ar  
     8    4    5 ar  
     9    4   41 1   
    10    5    8 ar  
    11    5   43 1   
    12    6    7 ar  
    13    6   42 1   
    14    7    8 ar  
    15    7   44 1   
    16    8    9 1   
    17    9   10 ar  
    18    9   11 ar  
    19   10   14 ar  
    20   10   45 1   
    21   11   12 ar  
    22   11   46 1   
    23   12   13 ar  
    24   12   47 1   
    25   13   14 ar  
    26   13   48 1   
    27   14   15 1   
    28   15   16 2   
    29   15   17 2   
    30   15   18 1   
    31   18   19 1   
    32   18   21 1   
    33   19   20 1   
    34   19   49 1   
    35   19   50 1   
    36   20   23 1   
    37   20   53 1   
    38   20   54 1   
    39   21   22 1   
    40   21   51 1   
    41   21   52 1   
    42   22   23 1   
    43   22   55 1   
    44   22   56 1   
    45   23   24 1   
    46   24   25 ar  
    47   24   29 ar  
    48   25   26 ar  
    49   26   27 ar  
    50   26   57 1   
    51   27   28 ar  
    52   27   58 1   
    53   28   29 ar  
    54   29   30 1   
    55   30   31 ar  
    56   30   37 ar  
    57   31   32 ar  
    58   31   59 1   
    59   32   33 ar  
    60   32   61 1   
    61   33   34 1   
    62   33   36 ar  
    63   34   35 1   
    64   35   63 1   
    65   35   64 1   
    66   35   65 1   
    67   36   37 ar  
    68   36   62 1   
    69   37   60 1   
@<TRIPOS>SUBSTRUCTURE
     1 751         1 TEMP              0 ****  ****    0 ROOT
