@<TRIPOS>MOLECULE
751
   65    69     1     0     0
SMALL
bcc


@<TRIPOS>ATOM
      1 C28        -0.2880    0.9970    0.0030 c3        1 751      0.112700
      2 O4          1.1150    1.2210    0.0910 os        1 751     -0.324900
      3 C25         1.7230    0.8260    1.2650 ca        1 751      0.132100
      4 C26         3.1040    1.0960    1.3360 ca        1 751     -0.179500
      5 C27         3.8090    0.7330    2.4740 ca        1 751     -0.082500
      6 C24         1.0650    0.2010    2.3300 ca        1 751     -0.179500
      7 C23         1.7900   -0.1540    3.4660 ca        1 751     -0.082500
      8 C22         3.1630    0.1040    3.5520 cp        1 751     -0.081000
      9 C18         3.9170   -0.2730    4.7450 cp        1 751     -0.050000
     10 C17         3.3620   -0.1050    6.0200 ca        1 751     -0.012000
     11 C19         5.2090   -0.8060    4.6330 ca        1 751     -0.062000
     12 C20         5.9290   -1.1540    5.7740 ca        1 751     -0.155000
     13 C21         5.3640   -0.9800    7.0340 ca        1 751     -0.020000
     14 C16         4.0710   -0.4590    7.1710 ca        1 751     -0.374500
     15 S1          3.4020   -0.2190    8.7050 sy        1 751      1.509200
     16 O1          4.4550    0.0330    9.6120 o         1 751     -0.651300
     17 O2          2.3950    0.7660    8.6030 o         1 751     -0.651300
     18 N1          2.7230   -1.6600    9.0470 n3        1 751     -0.817500
     19 C4          3.4460   -2.7300    9.6840 c3        1 751      0.222300
     20 C3          2.6870   -3.3670   10.8700 c3        1 751      0.163800
     21 C1          1.3480   -1.9680    8.7530 c3        1 751      0.222300
     22 C2          0.5890   -2.5910    9.9470 c3        1 751      0.163800
     23 N2          1.3160   -3.7240   10.5120 nh        1 751     -0.717300
     24 C5          0.6360   -4.4460   11.5410 ca        1 751      0.497900
     25 N3         -0.3790   -3.8630   12.2530 nb        1 751     -0.674000
     26 C6         -1.0010   -4.6150   13.1720 ca        1 751      0.302900
     27 C7         -0.6250   -5.9570   13.4270 ca        1 751      0.262900
     28 N4          0.3640   -6.5550   12.7420 nb        1 751     -0.616000
     29 C8          0.9970   -5.8270   11.7880 cp        1 751      0.355500
     30 C9          2.0560   -6.4940   11.0110 cp        1 751     -0.178500
     31 C10         3.1620   -7.0510   11.6700 ca        1 751     -0.063000
     32 C11         4.1560   -7.7020   10.9520 ca        1 751     -0.190000
     33 C12         4.0360   -7.8090    9.5530 ca        1 751      0.133100
     34 O3          5.0780   -8.4690    8.9310 os        1 751     -0.326900
     35 C15         4.9560   -8.6520    7.5260 c3        1 751      0.113700
     36 C13         2.9300   -7.2690    8.8870 ca        1 751     -0.190000
     37 C14         1.9430   -6.6140    9.6230 ca        1 751     -0.063000
     38 H281       -0.5530    1.4060   -1.0050 h1        1 751      0.046033
     39 H282       -0.5160   -0.0950    0.0580 h1        1 751      0.046033
     40 H283       -0.8280    1.5520    0.8080 h1        1 751      0.046033
     41 H26         3.6010    1.5920    0.4910 ha        1 751      0.146000
     42 H24        -0.0120   -0.0130    2.2840 ha        1 751      0.146000
     43 H27         4.8860    0.9510    2.5370 ha        1 751      0.135500
     44 H23         1.2720   -0.6480    4.3030 ha        1 751      0.135500
     45 H17         2.3550    0.3390    6.1220 ha        1 751      0.157000
     46 H19         5.6550   -0.9510    3.6360 ha        1 751      0.140000
     47 H20         6.9460   -1.5640    5.6790 ha        1 751      0.142000
     48 H21         5.9420   -1.2370    7.9390 ha        1 751      0.150000
     49 H41C        4.4240   -2.3330   10.0830 h1        1 751      0.059700
     50 H42C        3.6650   -3.5360    8.9250 h1        1 751      0.059700
     51 H11C        1.3050   -2.6840    7.8820 h1        1 751      0.059700
     52 H12C        0.8070   -1.0200    8.4670 h1        1 751      0.059700
     53 H31C        3.2330   -4.3080   11.1630 h1        1 751      0.057950
     54 H32C        2.7110   -2.6550   11.7440 h1        1 751      0.057950
     55 H21C        0.3960   -1.7840   10.7100 h1        1 751      0.057950
     56 H22C       -0.4030   -2.9640    9.5690 h1        1 751      0.057950
     57 H6         -1.8200   -4.1290   13.7300 h4        1 751      0.034100
     58 H7         -1.1320   -6.5650   14.1940 h4        1 751      0.036100
     59 H10         3.2400   -6.9790   12.7660 ha        1 751      0.144500
     60 H14         1.0720   -6.1870    9.1030 ha        1 751      0.144500
     61 H11         5.0300   -8.1390   11.4550 ha        1 751      0.145500
     62 H13         2.8250   -7.3560    7.7970 ha        1 751      0.145500
     63 H151        5.8800   -9.2250    7.2570 h1        1 751      0.045033
     64 H152        4.0400   -9.2440    7.2810 h1        1 751      0.045033
     65 H153        4.9370   -7.6670    7.0000 h1        1 751      0.045033
@<TRIPOS>BOND
     1    1    2 1   
     2    1   38 1   
     3    1   39 1   
     4    1   40 1   
     5    2    3 1   
     6    3    4 ar  
     7    3    6 ar  
     8    4    5 ar  
     9    4   41 1   
    10    5    8 ar  
    11    5   43 1   
    12    6    7 ar  
    13    6   42 1   
    14    7    8 ar  
    15    7   44 1   
    16    8    9 1   
    17    9   10 ar  
    18    9   11 ar  
    19   10   14 ar  
    20   10   45 1   
    21   11   12 ar  
    22   11   46 1   
    23   12   13 ar  
    24   12   47 1   
    25   13   14 ar  
    26   13   48 1   
    27   14   15 1   
    28   15   16 2   
    29   15   17 2   
    30   15   18 1   
    31   18   19 1   
    32   18   21 1   
    33   19   20 1   
    34   19   49 1   
    35   19   50 1   
    36   20   23 1   
    37   20   53 1   
    38   20   54 1   
    39   21   22 1   
    40   21   51 1   
    41   21   52 1   
    42   22   23 1   
    43   22   55 1   
    44   22   56 1   
    45   23   24 1   
    46   24   25 ar  
    47   24   29 ar  
    48   25   26 ar  
    49   26   27 ar  
    50   26   57 1   
    51   27   28 ar  
    52   27   58 1   
    53   28   29 ar  
    54   29   30 1   
    55   30   31 ar  
    56   30   37 ar  
    57   31   32 ar  
    58   31   59 1   
    59   32   33 ar  
    60   32   61 1   
    61   33   34 1   
    62   33   36 ar  
    63   34   35 1   
    64   35   63 1   
    65   35   64 1   
    66   35   65 1   
    67   36   37 ar  
    68   36   62 1   
    69   37   60 1   
@<TRIPOS>SUBSTRUCTURE
     1 751         1 TEMP              0 ****  ****    0 ROOT
