@<TRIPOS>MOLECULE
751
   65    69     1     0     0
SMALL
bcc


@<TRIPOS>ATOM
      1 C28        -0.2650    0.9790   -0.0090 c3        1 751      0.112700
      2 O4          1.1360    1.2140    0.0880 os        1 751     -0.324900
      3 C25         1.7400    0.8240    1.2660 ca        1 751      0.132100
      4 C26         3.1170    1.1050    1.3460 ca        1 751     -0.179500
      5 C27         3.8180    0.7460    2.4880 ca        1 751     -0.082500
      6 C24         1.0800    0.1920    2.3260 ca        1 751     -0.179500
      7 C23         1.8010   -0.1580    3.4660 ca        1 751     -0.082500
      8 C22         3.1710    0.1110    3.5610 cp        1 751     -0.081000
      9 C18         3.9200   -0.2610    4.7590 cp        1 751     -0.050000
     10 C17         3.3570   -0.0970    6.0300 ca        1 751     -0.012000
     11 C19         5.2180   -0.7830    4.6540 ca        1 751     -0.062000
     12 C20         5.9330   -1.1270    5.8000 ca        1 751     -0.155000
     13 C21         5.3580   -0.9580    7.0570 ca        1 751     -0.020000
     14 C16         4.0610   -0.4470    7.1860 ca        1 751     -0.374500
     15 S1          3.3810   -0.2130    8.7160 sy        1 751      1.509200
     16 O1          4.4260    0.0430    9.6300 o         1 751     -0.651300
     17 O2          2.3680    0.7670    8.6090 o         1 751     -0.651300
     18 N1          2.7080   -1.6580    9.0520 n3        1 751     -0.817500
     19 C4          3.4320   -2.7260    9.6900 c3        1 751      0.222300
     20 C3          2.6710   -3.3690   10.8710 c3        1 751      0.163800
     21 C1          1.3350   -1.9720    8.7490 c3        1 751      0.222300
     22 C2          0.5730   -2.6030    9.9380 c3        1 751      0.163800
     23 N2          1.3040   -3.7320   10.5050 nh        1 751     -0.717300
     24 C5          0.6220   -4.4600   11.5300 ca        1 751      0.497900
     25 N3         -0.3990   -3.8830   12.2380 nb        1 751     -0.674000
     26 C6         -1.0210   -4.6400   13.1530 ca        1 751      0.302900
     27 C7         -0.6400   -5.9810   13.4060 ca        1 751      0.263900
     28 N4          0.3550   -6.5730   12.7240 nb        1 751     -0.616000
     29 C8          0.9890   -5.8400   11.7750 cp        1 751      0.355500
     30 C9          2.0540   -6.5000   11.0020 cp        1 751     -0.178500
     31 C10         3.1600   -7.0530   11.6650 ca        1 751     -0.063000
     32 C11         4.1610   -7.6970   10.9500 ca        1 751     -0.190000
     33 C12         4.0480   -7.8030    9.5500 ca        1 751      0.133100
     34 O3          5.0950   -8.4570    8.9320 os        1 751     -0.326900
     35 C15         4.9800   -8.6380    7.5250 c3        1 751      0.112700
     36 C13         2.9420   -7.2660    8.8800 ca        1 751     -0.190000
     37 C14         1.9480   -6.6180    9.6130 ca        1 751     -0.063000
     38 H281       -0.8140    1.5280    0.7940 h1        1 751      0.046033
     39 H282       -0.5270    1.3870   -1.0180 h1        1 751      0.046033
     40 H283       -0.4840   -0.1150    0.0430 h1        1 751      0.046033
     41 H26         3.6160    1.6060    0.5040 ha        1 751      0.146000
     42 H24         0.0050   -0.0310    2.2740 ha        1 751      0.146000
     43 H27         4.8940    0.9730    2.5580 ha        1 751      0.135500
     44 H23         1.2820   -0.6570    4.2990 ha        1 751      0.135500
     45 H17         2.3450    0.3390    6.1270 ha        1 751      0.156000
     46 H19         5.6710   -0.9240    3.6600 ha        1 751      0.140000
     47 H20         6.9530   -1.5280    5.7110 ha        1 751      0.142000
     48 H21         5.9330   -1.2110    7.9650 ha        1 751      0.150000
     49 H41C        3.6590   -3.5290    8.9300 h1        1 751      0.059700
     50 H42C        4.4070   -2.3250   10.0940 h1        1 751      0.059700
     51 H11C        1.3000   -2.6880    7.8770 h1        1 751      0.059700
     52 H12C        0.7900   -1.0270    8.4620 h1        1 751      0.059700
     53 H31C        2.6870   -2.6590   11.7460 h1        1 751      0.057950
     54 H32C        3.2200   -4.3090   11.1640 h1        1 751      0.057950
     55 H21C       -0.4150   -2.9790    9.5550 h1        1 751      0.057950
     56 H22C        0.3720   -1.7980   10.7030 h1        1 751      0.057950
     57 H6         -1.8450   -4.1590   13.7080 h4        1 751      0.034100
     58 H7         -1.1480   -6.5920   14.1700 h4        1 751      0.036100
     59 H10         3.2330   -6.9820   12.7610 ha        1 751      0.144500
     60 H14         1.0770   -6.1940    9.0900 ha        1 751      0.144500
     61 H11         5.0340   -8.1320   11.4560 ha        1 751      0.145500
     62 H13         2.8420   -7.3520    7.7900 ha        1 751      0.145500
     63 H151        4.9590   -7.6510    7.0020 h1        1 751      0.045033
     64 H152        4.0690   -9.2330    7.2760 h1        1 751      0.045033
     65 H153        5.9080   -9.2060    7.2600 h1        1 751      0.045033
@<TRIPOS>BOND
     1    1    2 1   
     2    1   38 1   
     3    1   39 1   
     4    1   40 1   
     5    2    3 1   
     6    3    4 ar  
     7    3    6 ar  
     8    4    5 ar  
     9    4   41 1   
    10    5    8 ar  
    11    5   43 1   
    12    6    7 ar  
    13    6   42 1   
    14    7    8 ar  
    15    7   44 1   
    16    8    9 1   
    17    9   10 ar  
    18    9   11 ar  
    19   10   14 ar  
    20   10   45 1   
    21   11   12 ar  
    22   11   46 1   
    23   12   13 ar  
    24   12   47 1   
    25   13   14 ar  
    26   13   48 1   
    27   14   15 1   
    28   15   16 2   
    29   15   17 2   
    30   15   18 1   
    31   18   19 1   
    32   18   21 1   
    33   19   20 1   
    34   19   49 1   
    35   19   50 1   
    36   20   23 1   
    37   20   53 1   
    38   20   54 1   
    39   21   22 1   
    40   21   51 1   
    41   21   52 1   
    42   22   23 1   
    43   22   55 1   
    44   22   56 1   
    45   23   24 1   
    46   24   25 ar  
    47   24   29 ar  
    48   25   26 ar  
    49   26   27 ar  
    50   26   57 1   
    51   27   28 ar  
    52   27   58 1   
    53   28   29 ar  
    54   29   30 1   
    55   30   31 ar  
    56   30   37 ar  
    57   31   32 ar  
    58   31   59 1   
    59   32   33 ar  
    60   32   61 1   
    61   33   34 1   
    62   33   36 ar  
    63   34   35 1   
    64   35   63 1   
    65   35   64 1   
    66   35   65 1   
    67   36   37 ar  
    68   36   62 1   
    69   37   60 1   
@<TRIPOS>SUBSTRUCTURE
     1 751         1 TEMP              0 ****  ****    0 ROOT
