@<TRIPOS>MOLECULE
751
   65    69     1     0     0
SMALL
bcc


@<TRIPOS>ATOM
      1 C28         8.2260   -1.3230   -3.7250 c3        1 751      0.112700
      2 O4          8.4220   -1.1720   -2.3230 os        1 751     -0.324900
      3 C25         7.3040   -0.8470   -1.5820 ca        1 751      0.132100
      4 C26         7.5380   -0.6680   -0.2050 ca        1 751     -0.179500
      5 C27         6.4770   -0.3440    0.6280 ca        1 751     -0.082500
      6 C24         6.0160   -0.6990   -2.1100 ca        1 751     -0.179500
      7 C23         4.9640   -0.3700   -1.2580 ca        1 751     -0.082500
      8 C22         5.1780   -0.1920    0.1140 cp        1 751     -0.081000
      9 C18         4.0700    0.1500    1.0010 cp        1 751     -0.050000
     10 C17         3.0860    1.0600    0.5930 ca        1 751     -0.012000
     11 C19         3.9750   -0.4240    2.2770 ca        1 751     -0.062000
     12 C20         2.9210   -0.0870    3.1240 ca        1 751     -0.155000
     13 C21         1.9520    0.8190    2.7040 ca        1 751     -0.020000
     14 C16         2.0190    1.3980    1.4310 ca        1 751     -0.374500
     15 S1          0.8570    2.5220    0.9380 sy        1 751      1.509200
     16 O1          0.3730    3.1900    2.0850 o         1 751     -0.651300
     17 O2          1.4170    3.3240   -0.0820 o         1 751     -0.651300
     18 N1         -0.3240    1.5910    0.3130 n3        1 751     -0.817500
     19 C4         -1.3900    1.0440    1.1110 c3        1 751      0.222300
     20 C3         -2.7930    1.2590    0.5000 c3        1 751      0.163800
     21 C1         -0.4000    1.2560   -1.0850 c3        1 751      0.222300
     22 C2         -1.8020    1.4870   -1.6970 c3        1 751      0.163800
     23 N2         -2.8450    0.8470   -0.9010 nh        1 751     -0.717300
     24 C5         -4.1640    0.8970   -1.4520 ca        1 751      0.497900
     25 N3         -4.4990    1.8470   -2.3810 nb        1 751     -0.674000
     26 C6         -5.7400    1.8060   -2.8870 ca        1 751      0.302900
     27 C7         -6.6890    0.8380   -2.4750 ca        1 751      0.263900
     28 N4         -6.3860   -0.1070   -1.5690 nb        1 751     -0.616000
     29 C8         -5.1310   -0.1060   -1.0560 cp        1 751      0.355500
     30 C9         -4.7870   -1.1640   -0.0910 cp        1 751     -0.178500
     31 C10        -5.5340   -1.3050    1.0880 ca        1 751     -0.063000
     32 C11        -5.2340   -2.3120    1.9960 ca        1 751     -0.190000
     33 C12        -4.1790   -3.2010    1.7140 ca        1 751      0.133100
     34 O3         -3.9590   -4.1630    2.6800 os        1 751     -0.326900
     35 C15        -2.9420   -5.1170    2.3970 c3        1 751      0.112700
     36 C13        -3.4370   -3.0770    0.5340 ca        1 751     -0.190000
     37 C14        -3.7470   -2.0570   -0.3640 ca        1 751     -0.063000
     38 H281        9.2520   -1.5600   -4.1060 h1        1 751      0.046033
     39 H282        7.5230   -2.1650   -3.9360 h1        1 751      0.046033
     40 H283        7.8480   -0.3740   -4.1750 h1        1 751      0.046033
     41 H26         8.5580   -0.7840    0.1890 ha        1 751      0.146000
     42 H24         5.8240   -0.8360   -3.1830 ha        1 751      0.146000
     43 H27         6.6580   -0.1930    1.7030 ha        1 751      0.135500
     44 H23         3.9510   -0.2560   -1.6730 ha        1 751      0.135500
     45 H17         3.1640    1.5390   -0.4000 ha        1 751      0.157000
     46 H19         4.7380   -1.1460    2.6080 ha        1 751      0.140000
     47 H20         2.8580   -0.5350    4.1270 ha        1 751      0.142000
     48 H21         1.1280    1.1020    3.3830 ha        1 751      0.150000
     49 H41C       -1.2240   -0.0640    1.2460 h1        1 751      0.059700
     50 H42C       -1.3850    1.5360    2.1270 h1        1 751      0.059700
     51 H11C        0.3290    1.8950   -1.6630 h1        1 751      0.059700
     52 H12C       -0.1190    0.1720   -1.2250 h1        1 751      0.059700
     53 H31C       -3.5230    0.6290    1.0820 h1        1 751      0.057950
     54 H32C       -3.0820    2.3430    0.6210 h1        1 751      0.057950
     55 H21C       -1.9680    2.5970   -1.8050 h1        1 751      0.057950
     56 H22C       -1.8110    1.0270   -2.7230 h1        1 751      0.057950
     57 H6         -5.9880    2.5750   -3.6380 h4        1 751      0.034100
     58 H7         -7.7120    0.8190   -2.8860 h4        1 751      0.036100
     59 H10        -6.3690   -0.6180    1.2930 ha        1 751      0.144500
     60 H14        -3.1640   -1.9550   -1.2930 ha        1 751      0.144500
     61 H11        -5.8100   -2.4320    2.9250 ha        1 751      0.145500
     62 H13        -2.6180   -3.7720    0.3040 ha        1 751      0.145500
     63 H151       -1.9470   -4.6170    2.3100 h1        1 751      0.045033
     64 H152       -2.9670   -5.7960    3.2870 h1        1 751      0.045033
     65 H153       -3.1790   -5.6820    1.4620 h1        1 751      0.045033
@<TRIPOS>BOND
     1    1    2 1   
     2    1   38 1   
     3    1   39 1   
     4    1   40 1   
     5    2    3 1   
     6    3    4 ar  
     7    3    6 ar  
     8    4    5 ar  
     9    4   41 1   
    10    5    8 ar  
    11    5   43 1   
    12    6    7 ar  
    13    6   42 1   
    14    7    8 ar  
    15    7   44 1   
    16    8    9 1   
    17    9   10 ar  
    18    9   11 ar  
    19   10   14 ar  
    20   10   45 1   
    21   11   12 ar  
    22   11   46 1   
    23   12   13 ar  
    24   12   47 1   
    25   13   14 ar  
    26   13   48 1   
    27   14   15 1   
    28   15   16 2   
    29   15   17 2   
    30   15   18 1   
    31   18   19 1   
    32   18   21 1   
    33   19   20 1   
    34   19   49 1   
    35   19   50 1   
    36   20   23 1   
    37   20   53 1   
    38   20   54 1   
    39   21   22 1   
    40   21   51 1   
    41   21   52 1   
    42   22   23 1   
    43   22   55 1   
    44   22   56 1   
    45   23   24 1   
    46   24   25 ar  
    47   24   29 ar  
    48   25   26 ar  
    49   26   27 ar  
    50   26   57 1   
    51   27   28 ar  
    52   27   58 1   
    53   28   29 ar  
    54   29   30 1   
    55   30   31 ar  
    56   30   37 ar  
    57   31   32 ar  
    58   31   59 1   
    59   32   33 ar  
    60   32   61 1   
    61   33   34 1   
    62   33   36 ar  
    63   34   35 1   
    64   35   63 1   
    65   35   64 1   
    66   35   65 1   
    67   36   37 ar  
    68   36   62 1   
    69   37   60 1   
@<TRIPOS>SUBSTRUCTURE
     1 751         1 TEMP              0 ****  ****    0 ROOT
