@<TRIPOS>MOLECULE
751
   65    60     1     0     0
SMALL
bcc


@<TRIPOS>ATOM
      1 C28        -0.5710    5.9100   -8.7650 c3        1 751     -0.077000
      2 O4         -0.9860    6.1720   -7.4200 os        1 751     -0.208000
      3 C25        -0.4830    5.2360   -6.4610 c2        1 751      0.086000
      4 C26        -1.1010    4.0170   -6.3070 c2        1 751     -0.206000
      5 C27        -0.7240    3.1720   -5.2660 c1        1 751     -0.083000
      6 C24         0.5200    5.6250   -5.5760 c1        1 751     -0.155000
      7 C23         0.8960    4.7810   -4.5360 c1        1 751     -0.085000
      8 C22         0.2760    3.5590   -4.3820 c1        1 751     -0.083000
      9 C18         0.7620    2.5890   -3.3150 c2        1 751     -0.050000
     10 C17         0.2580    2.6660   -2.0320 c1        1 751     -0.013000
     11 C19         1.7360    1.6390   -3.6270 c2        1 751     -0.063000
     12 C20         2.1980    0.7740   -2.6510 c1        1 751     -0.155000
     13 C21         1.6970    0.8470   -1.3690 c1        1 751     -0.021000
     14 C16         0.7200    1.7980   -1.0510 c1        1 751     -0.818000
     15 S1          0.2920    2.0760    0.6310 s4        1 751      2.066800
     16 O1          1.3780    2.6840    1.3480 o         1 751     -0.538400
     17 O2         -0.7380    3.1020    0.7540 o         1 751     -0.538400
     18 N1         -0.1830    0.6450    1.3510 n2        1 751     -0.834000
     19 C4          0.6050    0.0720    2.3840 c3        1 751     -0.038500
     20 C3         -0.2510   -0.3270    3.6730 c3        1 751     -0.064000
     21 C1         -1.4470    0.3740    1.4960 c3        1 751     -0.038500
     22 C2         -1.9600   -0.8390    1.9280 c3        1 751     -0.064000
     23 N2         -1.1750   -1.3910    2.9550 n3        1 751     -0.201000
     24 C5         -2.0400   -2.0400    3.9470 c2        1 751      0.045000
     25 N3         -3.1530   -1.4120    4.3820 n2        1 751     -0.152000
     26 C6         -3.9330   -1.9890    5.3090 c1        1 751     -0.091000
     27 C7         -3.5970   -3.2390    5.8270 c1        1 751     -0.141000
     28 N4         -2.4900   -3.8720    5.3990 n1        1 751     -0.087000
     29 C8         -1.7010   -3.2930    4.4640 c1        1 751     -0.023000
     30 C9         -0.4050   -4.0160    3.9820 c2        1 751     -0.071000
     31 C10        -0.4270   -4.7980    2.7930 c2        1 751     -0.060000
     32 C11         0.7190   -5.4680    2.3800 c1        1 751     -0.215000
     33 C12         1.9040   -5.3730    3.1400 c1        1 751      0.088000
     34 O3          3.0690   -6.0010    2.6970 os        1 751     -0.209000
     35 C15         3.7470   -5.2980    1.7060 c3        1 751     -0.076000
     36 C13         1.9250   -4.5940    4.3230 c1        1 751     -0.165000
     37 C14         0.7740   -3.9210    4.7380 c1        1 751     -0.069000
     38 H281       -0.8100    4.9730   -9.0110 h1        1 751      0.085000
     39 H282       -1.0200    6.5280   -9.3680 h1        1 751      0.085000
     40 H283        0.3910    6.0280   -8.8360 h1        1 751      0.085000
     41 H26        -1.7990    3.7450   -6.9220 ha        1 751      0.139000
     42 H24         0.9740    6.5210   -5.6890 ha        1 751      0.154000
     43 H27        -1.1570    2.3190   -5.1570 ha        1 751      0.133000
     44 H23         1.6010    5.0530   -3.9150 ha        1 751      0.145000
     45 H17        -0.4360    3.3470   -1.8090 ha        1 751      0.151000
     46 H19         2.0950    1.5830   -4.5390 ha        1 751      0.140000
     47 H20         2.9000    0.0920   -2.8780 ha        1 751      0.141000
     48 H21         2.0190    0.2470   -0.6960 ha        1 751      0.156000
     49 H41C        1.0570   -0.7420    2.0300 h1        1 751      0.098500
     50 H42C        1.2910    0.7250    2.6530 h1        1 751      0.098500
     51 H11C       -1.8480    0.5360    0.6410 h1        1 751      0.098500
     52 H12C       -1.7970    1.0470    2.1040 h1        1 751      0.098500
     53 H31C       -0.7780    0.4480    4.0220 h1        1 751      0.106000
     54 H32C        0.2980   -0.7350    4.3590 h1        1 751      0.106000
     55 H21C       -2.8750   -0.7000    2.2600 h1        1 751      0.106000
     56 H22C       -1.9860   -1.4790    1.1500 h1        1 751      0.106000
     57 H6         -4.7500   -1.5260    5.6270 ha        1 751      0.172000
     58 H7         -4.1780   -3.6630    6.5120 ha        1 751      0.173000
     59 H10        -1.2700   -4.8660    2.2520 ha        1 751      0.146000
     60 H14         0.7890   -3.3810    5.5600 ha        1 751      0.146000
     61 H11         0.7040   -6.0280    1.5290 ha        1 751      0.139000
     62 H13         2.7640   -4.5260    4.8630 ha        1 751      0.152000
     63 H151        3.2750   -5.4030    0.8500 h1        1 751      0.084333
     64 H152        3.7820   -4.3600    1.9410 h1        1 751      0.084333
     65 H153        4.6570   -5.6490    1.6210 h1        1 751      0.084333
@<TRIPOS>BOND
     1    1    2 1   
     2    1   38 1   
     3    1   39 1   
     4    1   40 1   
     5    2    3 1   
     6    3    4 1   
     7    3    6 1   
     8    4    5 1   
     9    4   41 1   
    10    5   43 1   
    11    6   42 1   
    12    7    8 1   
    13    7   44 1   
    14    8    9 1   
    15    9   10 1   
    16    9   11 1   
    17   10   45 1   
    18   11   12 1   
    19   11   46 1   
    20   12   47 1   
    21   13   14 1   
    22   13   48 1   
    23   14   15 1   
    24   15   16 1   
    25   15   17 1   
    26   18   19 1   
    27   18   21 1   
    28   19   20 1   
    29   19   49 1   
    30   19   50 1   
    31   20   23 1   
    32   20   53 1   
    33   20   54 1   
    34   21   22 1   
    35   21   51 1   
    36   21   52 1   
    37   22   23 1   
    38   22   55 1   
    39   22   56 1   
    40   23   24 1   
    41   24   25 1   
    42   24   29 1   
    43   25   26 1   
    44   26   57 1   
    45   27   28 1   
    46   27   58 1   
    47   29   30 1   
    48   30   31 1   
    49   30   37 1   
    50   31   32 1   
    51   31   59 1   
    52   32   61 1   
    53   33   34 1   
    54   33   36 1   
    55   34   35 1   
    56   35   63 1   
    57   35   64 1   
    58   35   65 1   
    59   36   62 1   
    60   37   60 1   
@<TRIPOS>SUBSTRUCTURE
     1 751         1 TEMP              0 ****  ****    0 ROOT
