@<TRIPOS>MOLECULE
754
   64    59     1     0     0
SMALL
bcc


@<TRIPOS>ATOM
      1 C1         -0.1770    0.0020   -1.7960 c1        1 754     -0.058500
      2 O1          2.0010   -0.1010    1.8800 os        1 754     -0.217000
      3 C2          1.3020   -0.0690   -1.7970 c1        1 754     -0.058500
      4 O2         -4.7380    1.3350    1.5220 o         1 754     -0.567000
      5 C3         -0.8690    0.0330   -0.5890 c1        1 754     -0.146500
      6 O3         -6.6290    0.2420    1.5180 o         1 754     -0.567000
      7 C4         -0.9240    0.0020   -3.2100 c3        1 754     -0.009500
      8 C5          1.9950   -0.1050   -0.5910 c1        1 754     -0.146500
      9 C6          2.0520    0.0410   -3.2070 c3        1 754     -0.009500
     10 C7          1.2850   -0.0740    0.6370 c1        1 754      0.065000
     11 C8         -0.1590   -0.0040    0.6380 c1        1 754     -0.014000
     12 C9         -0.1030   -0.2170   -4.3640 c3        1 754     -0.147000
     13 C10         1.2350    0.3550   -4.3410 c3        1 754     -0.147000
     14 C11        -0.7540    0.5700    1.9490 c2        1 754     -0.135000
     15 C12         4.0830    0.3790    3.0240 c3        1 754     -0.170000
     16 C13        -1.9790   -1.1200   -3.1750 c3        1 754     -0.202250
     17 C14        -1.5980    1.3770   -3.3770 c3        1 754     -0.202250
     18 C15         3.1110    1.1500   -3.0800 c3        1 754     -0.202250
     19 C16         2.7200   -1.3170   -3.4810 c3        1 754     -0.202250
     20 C17        -1.8830    0.0010    2.5010 c1        1 754     -0.062000
     21 C18        -0.0900    1.7680    2.6300 c3        1 754     -0.163000
     22 C19        -2.5480   -1.1960    1.8200 c1        1 754     -0.131000
     23 C20        -3.7190   -1.7150    2.3290 c1        1 754     -0.131000
     24 C21        -4.3550   -1.0940    3.5760 c1        1 754     -0.160000
     25 C22        -5.2100   -0.0370    3.4520 c1        1 754     -0.126000
     26 C23        -4.0320   -1.6590    4.9650 c3        1 754     -0.166000
     27 C24        -5.5310    0.5250    2.0730 c1        1 754      0.343000
     28 C25         3.4220   -0.1250    1.7300 c3        1 754     -0.019000
     29 C26         5.5990    0.4990    2.8110 c3        1 754     -0.209000
     30 H3         -1.8480    0.0810   -0.5860 ha        1 754      0.138500
     31 H5          2.9720   -0.1990   -0.5900 ha        1 754      0.138500
     32 H9         -0.5770    0.1510   -5.1470 hc        1 754      0.078250
     33 H9A        -0.0140   -1.1880   -4.4900 hc        1 754      0.078250
     34 H10         1.7070    0.0300   -5.1420 hc        1 754      0.078250
     35 H10A        1.1370    1.3320   -4.3710 hc        1 754      0.078250
     36 H12         3.7140    1.2600    3.2580 hc        1 754      0.097000
     37 H12A        3.9030   -0.2560    3.7520 hc        1 754      0.097000
     38 H13        -2.2860   -1.3120   -4.0910 hc        1 754      0.074917
     39 H13A       -1.5820   -1.9330   -2.7850 hc        1 754      0.074917
     40 H13B       -2.7440   -0.8340   -2.6260 hc        1 754      0.074917
     41 H14        -2.3810    1.4330   -2.7850 hc        1 754      0.074917
     42 H14A       -1.8850    1.4910   -4.3120 hc        1 754      0.074917
     43 H14B       -0.9580    2.0870   -3.1420 hc        1 754      0.074917
     44 H15         3.3880    1.4430   -3.9770 hc        1 754      0.074917
     45 H15A        3.8920    0.8050   -2.5920 hc        1 754      0.074917
     46 H15B        2.7300    1.9120   -2.5900 hc        1 754      0.074917
     47 H16         2.0970   -2.0410   -3.2510 hc        1 754      0.074917
     48 H16A        2.9580   -1.3800   -4.4350 hc        1 754      0.074917
     49 H16B        3.5340   -1.3990   -2.9350 hc        1 754      0.074917
     50 H17        -2.2600    0.3650    3.3310 ha        1 754      0.123000
     51 H18         0.5100    2.2140    1.9950 hc        1 754      0.073000
     52 H18A        0.4270    1.4580    3.4070 hc        1 754      0.073000
     53 H18B       -0.7810    2.4000    2.9280 hc        1 754      0.073000
     54 H19        -2.1430   -1.5930    1.0240 ha        1 754      0.146000
     55 H20        -4.1450   -2.4830    1.8920 ha        1 754      0.146000
     56 H22        -5.6170    0.3610    4.2510 ha        1 754      0.101000
     57 H23        -3.2550   -2.2580    4.9030 hc        1 754      0.061333
     58 H23A       -4.8070   -2.1630    5.3030 hc        1 754      0.061333
     59 H23B       -3.8280   -0.9210    5.5800 hc        1 754      0.061333
     60 H25         3.6830    0.4540    0.9830 h1        1 754      0.073000
     61 H25A        3.7170   -1.0460    1.5490 h1        1 754      0.073000
     62 H26         5.3410    1.4400    2.6960 hc        1 754      0.071000
     63 H26A        6.3040    0.9310    3.3490 hc        1 754      0.071000
     64 H26B        5.5890   -0.0880    3.5980 hc        1 754      0.071000
@<TRIPOS>BOND
     1    1    5 1   
     2    1    7 1   
     3    2   10 1   
     4    2   28 1   
     5    3    8 1   
     6    3    9 1   
     7    4   27 1   
     8    5   30 1   
     9    6   27 1   
    10    7   12 1   
    11    7   16 1   
    12    7   17 1   
    13    8   31 1   
    14    9   13 1   
    15    9   18 1   
    16    9   19 1   
    17   10   11 1   
    18   11   14 1   
    19   12   13 1   
    20   12   32 1   
    21   12   33 1   
    22   13   34 1   
    23   13   35 1   
    24   14   20 1   
    25   14   21 1   
    26   15   28 1   
    27   15   29 1   
    28   15   36 1   
    29   15   37 1   
    30   16   38 1   
    31   16   39 1   
    32   16   40 1   
    33   17   41 1   
    34   17   42 1   
    35   17   43 1   
    36   18   44 1   
    37   18   45 1   
    38   18   46 1   
    39   19   47 1   
    40   19   48 1   
    41   19   49 1   
    42   20   50 1   
    43   21   51 1   
    44   21   52 1   
    45   21   53 1   
    46   22   23 1   
    47   22   54 1   
    48   23   55 1   
    49   24   25 1   
    50   24   26 1   
    51   25   56 1   
    52   26   57 1   
    53   26   58 1   
    54   26   59 1   
    55   28   60 1   
    56   28   61 1   
    57   29   62 1   
    58   29   63 1   
    59   29   64 1   
@<TRIPOS>SUBSTRUCTURE
     1 754         1 TEMP              0 ****  ****    0 ROOT
