@<TRIPOS>MOLECULE
754
   64    65     1     0     0
SMALL
bcc


@<TRIPOS>ATOM
      1 C1          0.3220   -0.1330    0.0660 ca        1 754     -0.073300
      2 O1          2.9080    1.1520    3.1010 os        1 754     -0.355900
      3 C2          1.5390    0.4980   -0.2400 ca        1 754     -0.064300
      4 O2         -0.4770   -7.6590    5.9180 o         1 754     -0.829300
      5 C3         -0.0030   -0.3770    1.4070 ca        1 754     -0.111000
      6 O3         -1.4860   -5.6730    6.0390 o         1 754     -0.829300
      7 C4         -0.6530   -0.5830   -0.9890 c3        1 754     -0.001700
      8 C5          2.3830    0.8880    0.8070 ca        1 754     -0.147000
      9 C6          1.9820    0.7790   -1.6510 c3        1 754     -0.000700
     10 C7          2.0380    0.6460    2.1410 ca        1 754      0.097100
     11 C8          0.8290    0.0030    2.4660 ca        1 754     -0.033800
     12 C9         -0.3270    0.0380   -2.3480 c3        1 754     -0.068400
     13 C10         1.1470   -0.0070   -2.6620 c3        1 754     -0.067400
     14 C11         0.4070   -0.2630    3.8410 ce        1 754     -0.148400
     15 C12         4.3330    0.8500    4.9620 c3        1 754     -0.084400
     16 C13        -2.0740   -0.1580   -0.6200 c3        1 754     -0.086100
     17 C14        -0.6120   -2.1060   -1.0890 c3        1 754     -0.086100
     18 C15         3.4410    0.3660   -1.8450 c3        1 754     -0.083600
     19 C16         1.8590    2.2750   -1.9270 c3        1 754     -0.083600
     20 C17         0.1010   -1.4960    4.3010 cf        1 754     -0.054000
     21 C18         0.2940    0.9300    4.7200 c3        1 754     -0.043900
     22 C19         0.1750   -2.7200    3.5450 cf        1 754     -0.253000
     23 C20        -0.1850   -3.9100    4.0710 ce        1 754     -0.022000
     24 C21        -0.1430   -5.1730    3.3610 ce        1 754     -0.164200
     25 C22        -0.4590   -6.3370    3.9620 cf        1 754     -0.134200
     26 C23         0.2650   -5.1430    1.9310 c3        1 754     -0.045900
     27 C24        -0.8350   -6.5570    5.4110 c         1 754      0.889800
     28 C25         3.5720    0.1290    3.8630 c3        1 754      0.125400
     29 C26         5.0870   -0.1350    5.8150 c3        1 754     -0.093100
     30 H3         -0.9440   -0.8970    1.6530 ha        1 754      0.148000
     31 H5          3.3330    1.4010    0.5960 ha        1 754      0.135000
     32 H9         -0.8960   -0.5110   -3.1440 hc        1 754      0.037700
     33 H9A        -0.6810    1.1030   -2.3580 hc        1 754      0.037700
     34 H10         1.4950   -1.0740   -2.6720 hc        1 754      0.038700
     35 H10A        1.3240    0.4130   -3.6870 hc        1 754      0.038700
     36 H12         5.0400    1.5890    4.5020 hc        1 754      0.046700
     37 H12A        3.6060    1.4320    5.5880 hc        1 754      0.046700
     38 H13        -2.4620   -0.7640    0.2330 hc        1 754      0.037367
     39 H13A       -2.7530   -0.3090   -1.4930 hc        1 754      0.037367
     40 H13B       -2.0940    0.9200   -0.3310 hc        1 754      0.037367
     41 H14        -1.3880   -2.4630   -1.8090 hc        1 754      0.037367
     42 H14A        0.3890   -2.4500   -1.4400 hc        1 754      0.037367
     43 H14B       -0.8110   -2.5640   -0.0890 hc        1 754      0.037367
     44 H15         4.1280    1.0650   -1.3100 hc        1 754      0.033533
     45 H15A        3.6990    0.3870   -2.9310 hc        1 754      0.033533
     46 H15B        3.6070   -0.6660   -1.4550 hc        1 754      0.033533
     47 H16         2.4620    2.8520   -1.1850 hc        1 754      0.033533
     48 H16A        0.7950    2.6020   -1.8490 hc        1 754      0.033533
     49 H16B        2.2330    2.5080   -2.9530 hc        1 754      0.033533
     50 H17        -0.2320   -1.6050    5.3510 ha        1 754      0.125000
     51 H18        -0.4500    1.6510    4.2980 hc        1 754      0.035367
     52 H18A        1.2830    1.4500    4.7900 hc        1 754      0.035367
     53 H18B       -0.0350    0.6460    5.7500 hc        1 754      0.035367
     54 H19         0.5430   -2.6390    2.5090 ha        1 754      0.115000
     55 H20        -0.5630   -3.9830    5.1150 ha        1 754      0.183000
     56 H22        -0.4170   -7.2770    3.3840 ha        1 754      0.103000
     57 H23         0.2050   -6.1590    1.4690 hc        1 754      0.022033
     58 H23A       -0.3970   -4.4540    1.3480 hc        1 754      0.022033
     59 H23B        1.3170   -4.7770    1.8340 hc        1 754      0.022033
     60 H25         4.2700   -0.4300    3.1860 h1        1 754      0.047200
     61 H25A        2.8140   -0.5790    4.2900 h1        1 754      0.047200
     62 H26         5.6370    0.4000    6.6270 hc        1 754      0.034700
     63 H26A        5.8270   -0.7050    5.2030 hc        1 754      0.034700
     64 H26B        4.3860   -0.8670    6.2860 hc        1 754      0.034700
@<TRIPOS>BOND
     1    1    3 ar  
     2    1    5 ar  
     3    1    7 1   
     4    2   10 1   
     5    2   28 1   
     6    3    8 ar  
     7    3    9 1   
     8    4   27 1   
     9    5   11 ar  
    10    5   30 1   
    11    6   27 1   
    12    7   12 1   
    13    7   16 1   
    14    7   17 1   
    15    8   10 ar  
    16    8   31 1   
    17    9   13 1   
    18    9   18 1   
    19    9   19 1   
    20   10   11 ar  
    21   11   14 1   
    22   12   13 1   
    23   12   32 1   
    24   12   33 1   
    25   13   34 1   
    26   13   35 1   
    27   14   20 2   
    28   14   21 1   
    29   15   28 1   
    30   15   29 1   
    31   15   36 1   
    32   15   37 1   
    33   16   38 1   
    34   16   39 1   
    35   16   40 1   
    36   17   41 1   
    37   17   42 1   
    38   17   43 1   
    39   18   44 1   
    40   18   45 1   
    41   18   46 1   
    42   19   47 1   
    43   19   48 1   
    44   19   49 1   
    45   20   22 1   
    46   20   50 1   
    47   21   51 1   
    48   21   52 1   
    49   21   53 1   
    50   22   23 2   
    51   22   54 1   
    52   23   24 1   
    53   23   55 1   
    54   24   25 2   
    55   24   26 1   
    56   25   27 1   
    57   25   56 1   
    58   26   57 1   
    59   26   58 1   
    60   26   59 1   
    61   28   60 1   
    62   28   61 1   
    63   29   62 1   
    64   29   63 1   
    65   29   64 1   
@<TRIPOS>SUBSTRUCTURE
     1 754         1 TEMP              0 ****  ****    0 ROOT
