@<TRIPOS>MOLECULE
754
   64    65     1     0     0
SMALL
bcc


@<TRIPOS>ATOM
      1 C1          0.3330   -0.2980    0.2330 ca        1 754     -0.079300
      2 O1          2.5290    1.1770    3.4820 os        1 754     -0.335900
      3 C2          1.5810    0.3010    0.0030 ca        1 754     -0.045300
      4 O2         -0.3300   -8.0800    3.2440 o         1 754     -0.829800
      5 C3         -0.1290   -0.4290    1.5500 ca        1 754     -0.101000
      6 O3         -2.5050   -8.0560    3.7480 o         1 754     -0.829800
      7 C4         -0.5320   -0.8390   -0.8740 c3        1 754     -0.001700
      8 C5          2.3130    0.7880    1.0940 ca        1 754     -0.192000
      9 C6          2.1730    0.4560   -1.3730 c3        1 754     -0.002700
     10 C7          1.8350    0.6550    2.4000 ca        1 754      0.114100
     11 C8          0.5960    0.0300    2.6540 ca        1 754     -0.036800
     12 C9         -0.0610   -0.3380   -2.2400 c3        1 754     -0.068400
     13 C10         1.4370   -0.4140   -2.3930 c3        1 754     -0.068400
     14 C11         0.0530   -0.1430    4.0010 ce        1 754     -0.106400
     15 C12         4.4770    1.0980    4.8180 c3        1 754     -0.090400
     16 C13        -1.9790   -0.3820   -0.6920 c3        1 754     -0.087100
     17 C14        -0.4960   -2.3650   -0.8380 c3        1 754     -0.087100
     18 C15         3.6380    0.0210   -1.3750 c3        1 754     -0.083600
     19 C16         2.0980    1.9220   -1.7900 c3        1 754     -0.083600
     20 C17        -0.3180   -1.3420    4.5000 cf        1 754     -0.079000
     21 C18        -0.0960    1.0960    4.8060 c3        1 754     -0.044900
     22 C19        -0.2170   -2.6080    3.8170 cf        1 754     -0.225000
     23 C20        -0.7190   -3.7510    4.3280 ce        1 754     -0.046000
     24 C21        -0.6620   -5.0510    3.6850 ce        1 754     -0.159200
     25 C22        -1.2650   -6.1110    4.2600 cf        1 754     -0.131200
     26 C23         0.0690   -5.1510    2.3970 c3        1 754     -0.048900
     27 C24        -1.3630   -7.5130    3.7000 c         1 754      0.892800
     28 C25         3.9550    1.0620    3.3910 c3        1 754      0.131400
     29 C26         5.9820    1.0570    4.8330 c3        1 754     -0.091100
     30 H3         -1.0920   -0.9320    1.7400 ha        1 754      0.150000
     31 H5          3.2810    1.2810    0.9230 ha        1 754      0.129000
     32 H9         -0.4000    0.7230   -2.3790 hc        1 754      0.038200
     33 H9A        -0.5490   -0.9530   -3.0410 hc        1 754      0.038200
     34 H10         1.7250   -0.0850   -3.4260 hc        1 754      0.041200
     35 H10A        1.7720   -1.4790   -2.2750 hc        1 754      0.041200
     36 H12         4.0570    0.2260    5.3840 hc        1 754      0.056200
     37 H12A        4.1070    2.0290    5.3220 hc        1 754      0.056200
     38 H13        -2.5650   -0.6090   -1.6150 hc        1 754      0.039033
     39 H13A       -2.4590   -0.9120    0.1640 hc        1 754      0.039033
     40 H13B       -2.0190    0.7170   -0.5020 hc        1 754      0.039033
     41 H14        -1.1940   -2.7820   -1.6030 hc        1 754      0.039033
     42 H14A        0.5330   -2.7400   -1.0500 hc        1 754      0.039033
     43 H14B       -0.8050   -2.7360    0.1700 hc        1 754      0.039033
     44 H15         4.0060   -0.0610   -2.4270 hc        1 754      0.033533
     45 H15A        3.7490   -0.9710   -0.8780 hc        1 754      0.033533
     46 H15B        4.2770    0.7640   -0.8410 hc        1 754      0.033533
     47 H16         2.6280    2.5610   -1.0430 hc        1 754      0.033533
     48 H16A        1.0360    2.2570   -1.8530 hc        1 754      0.033533
     49 H16B        2.5790    2.0610   -2.7870 hc        1 754      0.033533
     50 H17        -0.7360   -1.3820    5.5230 ha        1 754      0.111000
     51 H18        -0.7020    1.8500    4.2450 hc        1 754      0.036033
     52 H18A       -0.6040    0.8890    5.7800 hc        1 754      0.036033
     53 H18B        0.9090    1.5420    5.0170 hc        1 754      0.036033
     54 H19         0.2950   -2.6060    2.8400 ha        1 754      0.131000
     55 H20        -1.2290   -3.7300    5.3090 ha        1 754      0.102000
     56 H22        -1.7930   -5.9920    5.2210 ha        1 754      0.097000
     57 H23         0.1050   -6.2170    2.0520 hc        1 754      0.038367
     58 H23A       -0.4330   -4.5280    1.6140 hc        1 754      0.038367
     59 H23B        1.1170   -4.7810    2.5170 hc        1 754      0.038367
     60 H25         4.2450    0.1070    2.8810 h1        1 754      0.035700
     61 H25A        4.3430    1.9330    2.8000 h1        1 754      0.035700
     62 H26         6.3570    0.1230    4.3480 hc        1 754      0.032367
     63 H26A        6.3560    1.0810    5.8850 hc        1 754      0.032367
     64 H26B        6.4090    1.9320    4.2860 hc        1 754      0.032367
@<TRIPOS>BOND
     1    1    3 ar  
     2    1    5 ar  
     3    1    7 1   
     4    2   10 1   
     5    2   28 1   
     6    3    8 ar  
     7    3    9 1   
     8    4   27 1   
     9    5   11 ar  
    10    5   30 1   
    11    6   27 1   
    12    7   12 1   
    13    7   16 1   
    14    7   17 1   
    15    8   10 ar  
    16    8   31 1   
    17    9   13 1   
    18    9   18 1   
    19    9   19 1   
    20   10   11 ar  
    21   11   14 1   
    22   12   13 1   
    23   12   32 1   
    24   12   33 1   
    25   13   34 1   
    26   13   35 1   
    27   14   20 2   
    28   14   21 1   
    29   15   28 1   
    30   15   29 1   
    31   15   36 1   
    32   15   37 1   
    33   16   38 1   
    34   16   39 1   
    35   16   40 1   
    36   17   41 1   
    37   17   42 1   
    38   17   43 1   
    39   18   44 1   
    40   18   45 1   
    41   18   46 1   
    42   19   47 1   
    43   19   48 1   
    44   19   49 1   
    45   20   22 1   
    46   20   50 1   
    47   21   51 1   
    48   21   52 1   
    49   21   53 1   
    50   22   23 2   
    51   22   54 1   
    52   23   24 1   
    53   23   55 1   
    54   24   25 2   
    55   24   26 1   
    56   25   27 1   
    57   25   56 1   
    58   26   57 1   
    59   26   58 1   
    60   26   59 1   
    61   28   60 1   
    62   28   61 1   
    63   29   62 1   
    64   29   63 1   
    65   29   64 1   
@<TRIPOS>SUBSTRUCTURE
     1 754         1 TEMP              0 ****  ****    0 ROOT
