@<TRIPOS>MOLECULE
754
   64    65     1     0     0
SMALL
bcc


@<TRIPOS>ATOM
      1 C1         -2.2810    0.7070   -0.0830 ca        1 754     -0.067300
      2 O1         -1.2600   -3.3460   -0.3680 os        1 754     -0.356900
      3 C2         -2.9110   -0.2540    0.7250 ca        1 754     -0.059300
      4 O2          5.5420    3.3530    1.5160 o         1 754     -0.827800
      5 C3         -1.2650    0.3040   -0.9600 ca        1 754     -0.109000
      6 O3          5.9660    4.3950   -0.4130 o         1 754     -0.827800
      7 C4         -2.6290    2.1710   -0.0330 c3        1 754     -0.003700
      8 C5         -2.5220   -1.5940    0.6120 ca        1 754     -0.146000
      9 C6         -3.9940    0.0890    1.7120 c3        1 754     -0.001700
     10 C7         -1.5130   -1.9810   -0.2760 ca        1 754      0.096100
     11 C8         -0.8620   -1.0300   -1.0830 ca        1 754     -0.043800
     12 C9         -3.9510    2.4020    0.7010 c3        1 754     -0.068400
     13 C10        -4.0510    1.5960    1.9710 c3        1 754     -0.068400
     14 C11         0.1910   -1.3770   -2.0380 ce        1 754     -0.123400
     15 C12         0.1940   -5.1960   -0.1540 c3        1 754     -0.085400
     16 C13        -2.7860    2.7320   -1.4460 c3        1 754     -0.087100
     17 C14        -1.5040    2.9290    0.6690 c3        1 754     -0.087100
     18 C15        -3.7310   -0.5960    3.0530 c3        1 754     -0.084100
     19 C16        -5.3370   -0.3960    1.1720 c3        1 754     -0.084100
     20 C17         1.4170   -0.8100   -2.0320 cf        1 754     -0.076000
     21 C18        -0.1790   -2.3840   -3.0660 c3        1 754     -0.048900
     22 C19         1.8850    0.1750   -1.0910 cf        1 754     -0.232000
     23 C20         3.0930    0.7660   -1.1980 ce        1 754     -0.039000
     24 C21         3.6160    1.7720   -0.2930 ce        1 754     -0.161200
     25 C22         4.8170    2.3350   -0.5370 cf        1 754     -0.128200
     26 C23         2.7850    2.1440    0.8780 c3        1 754     -0.048900
     27 C24         5.4800    3.4400    0.2580 c         1 754      0.892800
     28 C25         0.0260   -3.7190    0.1550 c3        1 754      0.126400
     29 C26         1.5110   -5.7000    0.3760 c3        1 754     -0.092100
     30 H3         -0.7470    1.0590   -1.5750 ha        1 754      0.148000
     31 H5         -3.0110   -2.3710    1.2190 ha        1 754      0.137000
     32 H9         -4.0450    3.4930    0.9440 hc        1 754      0.038700
     33 H9A        -4.8010    2.1350    0.0180 hc        1 754      0.038700
     34 H10        -5.0130    1.8390    2.4940 hc        1 754      0.041200
     35 H10A       -3.2120    1.8790    2.6620 hc        1 754      0.041200
     36 H12        -0.6540   -5.7700    0.3020 hc        1 754      0.046700
     37 H12A        0.1380   -5.3470   -1.2640 hc        1 754      0.046700
     38 H13        -3.4420    2.0680   -2.0570 hc        1 754      0.039033
     39 H13A       -3.2450    3.7480   -1.4000 hc        1 754      0.039033
     40 H13B       -1.7950    2.8210   -1.9510 hc        1 754      0.039033
     41 H14        -0.5290    2.7340    0.1580 hc        1 754      0.039033
     42 H14A       -1.7090    4.0260    0.6440 hc        1 754      0.039033
     43 H14B       -1.4140    2.6040    1.7320 hc        1 754      0.039033
     44 H15        -2.6760   -0.4260    3.3740 hc        1 754      0.034200
     45 H15A       -4.4150   -0.1790    3.8310 hc        1 754      0.034200
     46 H15B       -3.9120   -1.6940    2.9820 hc        1 754      0.034200
     47 H16        -5.2950   -1.4940    0.9730 hc        1 754      0.034200
     48 H16A       -6.1440   -0.1960    1.9170 hc        1 754      0.034200
     49 H16B       -5.5890    0.1270    0.2200 hc        1 754      0.034200
     50 H17         2.1450   -1.1160   -2.8070 ha        1 754      0.111000
     51 H18        -1.0500   -2.0190   -3.6650 hc        1 754      0.037033
     52 H18A        0.6700   -2.5850   -3.7640 hc        1 754      0.037033
     53 H18B       -0.4730   -3.3460   -2.5730 hc        1 754      0.037033
     54 H19         1.2040    0.4360   -0.2630 ha        1 754      0.133000
     55 H20         3.7600    0.4910   -2.0370 ha        1 754      0.102000
     56 H22         5.4040    2.0250   -1.4190 ha        1 754      0.097000
     57 H23         2.5450    1.2370    1.4870 hc        1 754      0.038700
     58 H23A        3.3340    2.8730    1.5300 hc        1 754      0.038700
     59 H23B        1.8210    2.6040    0.5440 hc        1 754      0.038700
     60 H25         0.8260   -3.1060   -0.3370 h1        1 754      0.046200
     61 H25A        0.0360   -3.5320    1.2610 h1        1 754      0.046200
     62 H26         1.5660   -5.5720    1.4840 hc        1 754      0.034367
     63 H26A        1.6310   -6.7850    0.1390 hc        1 754      0.034367
     64 H26B        2.3620   -5.1410   -0.0830 hc        1 754      0.034367
@<TRIPOS>BOND
     1    1    3 ar  
     2    1    5 ar  
     3    1    7 1   
     4    2   10 1   
     5    2   28 1   
     6    3    8 ar  
     7    3    9 1   
     8    4   27 1   
     9    5   11 ar  
    10    5   30 1   
    11    6   27 1   
    12    7   12 1   
    13    7   16 1   
    14    7   17 1   
    15    8   10 ar  
    16    8   31 1   
    17    9   13 1   
    18    9   18 1   
    19    9   19 1   
    20   10   11 ar  
    21   11   14 1   
    22   12   13 1   
    23   12   32 1   
    24   12   33 1   
    25   13   34 1   
    26   13   35 1   
    27   14   20 2   
    28   14   21 1   
    29   15   28 1   
    30   15   29 1   
    31   15   36 1   
    32   15   37 1   
    33   16   38 1   
    34   16   39 1   
    35   16   40 1   
    36   17   41 1   
    37   17   42 1   
    38   17   43 1   
    39   18   44 1   
    40   18   45 1   
    41   18   46 1   
    42   19   47 1   
    43   19   48 1   
    44   19   49 1   
    45   20   22 1   
    46   20   50 1   
    47   21   51 1   
    48   21   52 1   
    49   21   53 1   
    50   22   23 2   
    51   22   54 1   
    52   23   24 1   
    53   23   55 1   
    54   24   25 2   
    55   24   26 1   
    56   25   27 1   
    57   25   56 1   
    58   26   57 1   
    59   26   58 1   
    60   26   59 1   
    61   28   60 1   
    62   28   61 1   
    63   29   62 1   
    64   29   63 1   
    65   29   64 1   
@<TRIPOS>SUBSTRUCTURE
     1 754         1 TEMP              0 ****  ****    0 ROOT
