@<TRIPOS>MOLECULE
75A
   65    65     1     0     0
SMALL
bcc


@<TRIPOS>ATOM
      1 C23        -3.4900   -3.3970   -2.0010 c2        1 75A      0.295000
      2 O7         -2.9380   -4.1360   -2.8530 o         1 75A     -0.435000
      3 C24        -4.8260   -3.7700   -1.4040 c3        1 75A     -0.243000
      4 N1         -2.8800   -2.2600   -1.5230 n         1 75A     -0.353000
      5 C9         -1.8020   -1.6070   -2.2290 c3        1 75A     -0.002000
      6 C10        -0.5420   -2.4800   -2.3630 c2        1 75A      0.303000
      7 O4          0.0970   -2.5280   -3.4340 o         1 75A     -0.393000
      8 C8         -1.3960   -0.2560   -1.5730 c3        1 75A     -0.042000
      9 C5         -2.5540    0.4830   -1.0490 ca        1 75A     -0.394000
     10 C6         -3.3850    1.2460   -1.8980 ca        1 75A     -0.050000
     11 C4         -2.8850    0.4320    0.3230 ca        1 75A     -0.050000
     12 C7         -4.5080    1.8740   -1.4340 ca        1 75A     -0.259500
     13 C3         -4.0010    1.0480    0.8210 ca        1 75A     -0.259500
     14 C2         -4.8910    1.7790   -0.0470 ca        1 75A      0.030000
     15 C1         -6.0410    2.3450    0.4240 c2        1 75A     -0.039000
     16 F1         -6.9820    3.0520   -0.2490 f         1 75A     -0.133000
     17 F2         -6.5410    2.3400    1.6840 f         1 75A     -0.133000
     18 P1         -8.8510    3.6280    1.5240 p3        1 75A      2.399000
     19 O2         -9.1390    4.5460    0.4040 o         1 75A     -1.136667
     20 O1         -9.4510    2.2790    1.5300 o         1 75A     -1.136667
     21 O3         -8.2650    4.1840    2.7610 o         1 75A     -1.136667
     22 N2         -0.1010   -3.1780   -1.2510 n         1 75A     -0.378000
     23 N4          3.8640   -1.9090    2.1110 n         1 75A     -0.368000
     24 C11         0.9810   -4.1220   -1.3270 c3        1 75A      0.014000
     25 C12         0.5320   -5.5450   -1.7520 c2        1 75A      0.271000
     26 C13         1.7610   -4.2390   -0.0090 c3        1 75A     -0.156000
     27 C14         2.4350   -2.9350    0.3550 c3        1 75A     -0.181000
     28 C15         3.2720   -3.1260    1.6220 c3        1 75A     -0.030000
     29 C16         5.2040   -1.7910    2.3940 c2        1 75A      0.342000
     30 C17         5.6980   -0.4460    2.8210 ca        1 75A     -0.119000
     31 C18         6.6240   -0.3880    3.8690 ca        1 75A     -0.067000
     32 C19         7.1190    0.8460    4.2890 ca        1 75A     -0.147000
     33 C20         6.7010    2.0190    3.6600 ca        1 75A     -0.084000
     34 C21         5.7890    1.9600    2.6060 ca        1 75A     -0.272000
     35 C22         5.2840    0.7280    2.1860 ca        1 75A     -0.068000
     36 O5          1.0460   -6.5620   -1.2280 o         1 75A     -0.425000
     37 O6          5.9800   -2.7700    2.3460 o         1 75A     -0.379000
     38 I           5.1960    3.6590    1.6880 i         1 75A      0.157000
     39 N3         -0.3740   -5.6690   -2.7640 n         1 75A     -0.400000
     40 H24        -5.1590   -4.7440   -1.8350 hc        1 75A      0.106000
     41 H25        -4.7510   -3.8650   -0.2940 hc        1 75A      0.106000
     42 H26        -5.5840   -2.9830   -1.6440 hc        1 75A      0.106000
     43 H1         -3.4140   -1.6440   -0.9330 hn        1 75A      0.273000
     44 H12        -2.1310   -1.4000   -3.2940 h1        1 75A      0.115000
     45 H10        -0.6620   -0.4650   -0.7500 hc        1 75A      0.063500
     46 H11        -0.8640    0.3280   -2.3710 hc        1 75A      0.063500
     47 H8         -3.1130    1.3260   -2.9630 ha        1 75A      0.073500
     48 H7         -2.2190   -0.1220    1.0050 ha        1 75A      0.073500
     49 H9         -5.1500    2.4660   -2.0980 ha        1 75A      0.113500
     50 H6         -4.2500    1.0080    1.8880 ha        1 75A      0.113500
     51 H2         -0.6600   -3.1920   -0.4320 hn        1 75A      0.236000
     52 H5          3.2910   -1.0980    2.1230 hn        1 75A      0.231000
     53 H13         1.6900   -3.7720   -2.1400 h1        1 75A      0.137000
     54 H14         1.0750   -4.5660    0.8150 hc        1 75A      0.101500
     55 H15         2.5290   -5.0480   -0.1400 hc        1 75A      0.101500
     56 H16         3.0880   -2.5970   -0.4900 hc        1 75A      0.094000
     57 H17         1.6630   -2.1370    0.5210 hc        1 75A      0.094000
     58 H18         4.0900   -3.8770    1.4220 h1        1 75A      0.099000
     59 H19         2.6090   -3.5450    2.4340 h1        1 75A      0.099000
     60 H20         6.9590   -1.3230    4.3460 ha        1 75A      0.154000
     61 H21         7.8410    0.8950    5.1160 ha        1 75A      0.135000
     62 H22         7.0970    2.9880    4.0020 ha        1 75A      0.141000
     63 H23         4.5700    0.6820    1.3470 ha        1 75A      0.155000
     64 H3         -0.8690   -4.8830   -3.1210 hn        1 75A      0.237000
     65 H4         -0.7260   -6.5680   -2.9830 hn        1 75A      0.237000
@<TRIPOS>BOND
     1    1    2 1   
     2    1    3 1   
     3    1    4 1   
     4    3   40 1   
     5    3   41 1   
     6    3   42 1   
     7    4    5 1   
     8    4   43 1   
     9    5    6 1   
    10    5    8 1   
    11    5   44 1   
    12    6    7 1   
    13    6   22 1   
    14    8    9 1   
    15    8   45 1   
    16    8   46 1   
    17    9   10 1   
    18    9   11 1   
    19   10   12 1   
    20   10   47 1   
    21   11   13 1   
    22   11   48 1   
    23   12   14 1   
    24   12   49 1   
    25   13   14 1   
    26   13   50 1   
    27   14   15 1   
    28   15   16 1   
    29   15   17 1   
    30   18   19 1   
    31   18   20 1   
    32   18   21 1   
    33   22   24 1   
    34   22   51 1   
    35   23   28 1   
    36   23   29 1   
    37   23   52 1   
    38   24   25 1   
    39   24   26 1   
    40   24   53 1   
    41   25   36 1   
    42   25   39 1   
    43   26   27 1   
    44   26   54 1   
    45   26   55 1   
    46   27   28 1   
    47   27   56 1   
    48   27   57 1   
    49   28   58 1   
    50   28   59 1   
    51   29   30 1   
    52   29   37 1   
    53   30   31 1   
    54   30   35 1   
    55   31   32 1   
    56   31   60 1   
    57   32   33 1   
    58   32   61 1   
    59   33   34 1   
    60   33   62 1   
    61   34   35 1   
    62   34   38 1   
    63   35   63 1   
    64   39   64 1   
    65   39   65 1   
@<TRIPOS>SUBSTRUCTURE
     1 75A         1 TEMP              0 ****  ****    0 ROOT
