@<TRIPOS>MOLECULE
75A
   65    57     1     0     0
SMALL
bcc


@<TRIPOS>ATOM
      1 C23        -4.3140    1.5120    1.4760 c1        1 75A      0.298000
      2 O7         -4.4180    1.2440    0.2880 o         1 75A     -0.430000
      3 C24        -5.5880    1.7100    2.3400 c3        1 75A     -0.246000
      4 N1         -2.9920    1.6110    2.0880 n2        1 75A     -0.332000
      5 C9         -1.8180    1.6640    1.2590 c3        1 75A     -0.003000
      6 C10        -1.2090    0.2780    1.1500 c1        1 75A      0.303000
      7 O4         -1.0890   -0.4130    2.1420 o         1 75A     -0.414000
      8 C8         -0.8070    2.6140    1.8730 c3        1 75A     -0.045000
      9 C5         -1.2560    4.0540    1.6440 c2        1 75A     -0.389000
     10 C6         -1.3860    4.5430    0.3480 c1        1 75A     -0.044000
     11 C4         -1.4640    4.8970    2.7270 c2        1 75A     -0.059000
     12 C7         -1.7240    5.8700    0.1390 c1        1 75A     -0.259000
     13 C3         -1.8030    6.2270    2.5170 c1        1 75A     -0.262000
     14 C2         -1.9330    6.7140    1.2240 c1        1 75A      0.033000
     15 C1         -2.3900    8.1450    0.9950 c3        1 75A     -0.046000
     16 F1         -2.9850    8.2350   -0.1880 f         1 75A     -0.134500
     17 F2         -3.2540    8.4980    1.9570 f         1 75A     -0.134500
     18 P1         -0.9530    9.2560    1.0370 p5        1 75A      1.441500
     19 O2         -1.3710   10.6430    0.5760 o         1 75A     -0.817500
     20 O1         -0.4200    9.3350    2.4430 o         1 75A     -0.817500
     21 O3          0.1310    8.7180    0.1110 o         1 75A     -0.817500
     22 N2         -0.7770   -0.2280   -0.1460 n2        1 75A     -0.389000
     23 N4          1.4920   -5.1880   -2.2800 n3        1 75A     -0.361000
     24 C11         0.0240   -1.4140   -0.2220 c3        1 75A      0.023000
     25 C12         1.4400   -1.0840    0.1420 c1        1 75A      0.293000
     26 C13        -0.0220   -1.9740   -1.6510 c3        1 75A     -0.167000
     27 C14        -0.1860   -3.5280   -1.5980 c3        1 75A     -0.169000
     28 C15         0.5920   -4.1710   -2.7850 c3        1 75A     -0.023000
     29 C16         2.5410   -5.6990   -3.1220 c1        1 75A      0.334000
     30 C17         3.7270   -6.4360   -2.5030 c1        1 75A     -0.120000
     31 C18         3.8120   -6.5770   -1.1290 c1        1 75A     -0.110000
     32 C19         4.9270   -7.1810   -0.5600 c1        1 75A     -0.110000
     33 C20         5.9580   -7.6430   -1.3720 c1        1 75A     -0.086000
     34 C21         5.8730   -7.5010   -2.7480 c1        1 75A     -0.280000
     35 C22         4.7600   -6.8980   -3.3160 c2        1 75A     -0.050000
     36 O5          1.9190   -0.0330   -0.1970 o         1 75A     -0.455000
     37 O6          2.4670   -5.5730   -4.3290 o         1 75A     -0.387000
     38 I           7.3990   -8.2770   -3.9860 i         1 75A      0.123000
     39 N3          2.1880   -1.9740    0.9540 n2        1 75A     -0.414000
     40 H24        -6.2400    1.0000    2.1310 hc        1 75A      0.111333
     41 H25        -5.9850    2.5890    2.1430 hc        1 75A      0.111333
     42 H26        -5.3490    1.6650    3.2880 hc        1 75A      0.111333
     43 H1         -2.9090    1.6160    3.0000 hn        1 75A      0.257000
     44 H12        -2.0690    1.9880    0.3520 h1        1 75A      0.109000
     45 H10         0.0720    2.4740    1.4520 hc        1 75A      0.072500
     46 H11        -0.7390    2.4430    2.8280 hc        1 75A      0.072500
     47 H8         -1.2400    3.9540   -0.4100 ha        1 75A      0.073000
     48 H7         -1.3430    4.5630    3.6340 ha        1 75A      0.075000
     49 H9         -1.8650    6.2000   -0.7720 ha        1 75A      0.113000
     50 H6         -1.9530    6.8230    3.2830 ha        1 75A      0.113000
     51 H2         -1.0060    0.2140   -0.9050 hn        1 75A      0.268000
     52 H5          1.3580   -5.5460   -1.4470 hn        1 75A      0.254000
     53 H13        -0.3210   -2.0740    0.3930 h1        1 75A      0.121000
     54 H14         0.8100   -1.7500   -2.1160 hc        1 75A      0.105000
     55 H15        -0.7840   -1.5800   -2.1340 hc        1 75A      0.105000
     56 H16         0.1710   -3.8650   -0.7520 hc        1 75A      0.089500
     57 H17        -1.1180   -3.7540   -1.6650 hc        1 75A      0.089500
     58 H18        -0.0530   -4.5830   -3.4180 h1        1 75A      0.087500
     59 H19         1.1070   -3.4800   -3.2480 h1        1 75A      0.087500
     60 H20         3.0760   -6.2670   -0.5570 ha        1 75A      0.160000
     61 H21         4.9870   -7.2790    0.4020 ha        1 75A      0.160000
     62 H22         6.7400   -8.0660   -0.9730 ha        1 75A      0.138000
     63 H23         4.7190   -6.7620   -4.2850 ha        1 75A      0.164000
     64 H3          3.0330   -1.7430    1.2290 hn        1 75A      0.237000
     65 H4          1.8070   -2.7550    1.2500 hn        1 75A      0.237000
@<TRIPOS>BOND
     1    1    2 1   
     2    1    3 1   
     3    3   40 1   
     4    3   41 1   
     5    3   42 1   
     6    4    5 1   
     7    4   43 1   
     8    5    6 1   
     9    5    8 1   
    10    5   44 1   
    11    6    7 1   
    12    8    9 1   
    13    8   45 1   
    14    8   46 1   
    15    9   10 1   
    16    9   11 1   
    17   10   47 1   
    18   11   13 1   
    19   11   48 1   
    20   12   14 1   
    21   12   49 1   
    22   13   50 1   
    23   14   15 1   
    24   15   16 1   
    25   15   17 1   
    26   15   18 1   
    27   18   19 1   
    28   18   20 1   
    29   18   21 1   
    30   22   24 1   
    31   22   51 1   
    32   23   28 1   
    33   23   29 1   
    34   23   52 1   
    35   24   25 1   
    36   24   26 1   
    37   24   53 1   
    38   25   36 1   
    39   26   27 1   
    40   26   54 1   
    41   26   55 1   
    42   27   28 1   
    43   27   56 1   
    44   27   57 1   
    45   28   58 1   
    46   28   59 1   
    47   29   37 1   
    48   30   35 1   
    49   31   32 1   
    50   31   60 1   
    51   32   61 1   
    52   33   34 1   
    53   33   62 1   
    54   34   35 1   
    55   35   63 1   
    56   39   64 1   
    57   39   65 1   
@<TRIPOS>SUBSTRUCTURE
     1 75A         1 TEMP              0 ****  ****    0 ROOT
