@<TRIPOS>MOLECULE
75D
   42    42     1     0     0
SMALL
bcc


@<TRIPOS>ATOM
      1 OAI         0.4220   -0.4520    0.0280 o         1 75D     -0.743200
      2 SAS         1.8190   -0.2380    0.0020 s6        1 75D      1.452100
      3 OAG         2.3900   -0.0660    1.2830 o         1 75D     -0.743200
      4 OAH         2.5290   -1.1920   -0.7650 o         1 75D     -0.743200
      5 CAO         2.0210    1.3200   -0.8860 ca        1 75D     -0.233500
      6 CAM         2.2920    2.5410   -0.2460 ca        1 75D      0.015700
      7 CAQ         2.1860    2.7150    1.2430 c3        1 75D     -0.038900
      8 CAD         3.5590    2.6750    1.8860 c3        1 75D     -0.081100
      9 CAC         1.4650    4.0000    1.6090 c3        1 75D     -0.081100
     10 CAJ         2.6540    3.6740   -0.9900 ca        1 75D     -0.165000
     11 CAL         2.6920    3.6370   -2.3830 ca        1 75D     -0.076300
     12 CAP         3.1140    4.8450   -3.1600 c3        1 75D     -0.016400
     13 CAB         4.3470    4.5530   -3.9940 c3        1 75D     -0.084100
     14 CAA         1.9860    5.3500   -4.0400 c3        1 75D     -0.084100
     15 CAK         2.3150    2.4590   -3.0270 ca        1 75D     -0.165000
     16 CAN         1.9560    1.3220   -2.2920 ca        1 75D      0.015700
     17 CAR         1.4800    0.1270   -3.0720 c3        1 75D     -0.038900
     18 CAF         0.4210    0.5140   -4.0870 c3        1 75D     -0.081100
     19 CAE         2.6450   -0.5690   -3.7490 c3        1 75D     -0.081100
     20 H1          1.5780    1.8630    1.6700 hc        1 75D      0.098700
     21 H2          4.2450    3.4120    1.4040 hc        1 75D      0.027867
     22 H3          3.9840    1.6450    1.7800 hc        1 75D      0.027867
     23 H4          3.4790    2.9180    2.9730 hc        1 75D      0.027867
     24 H5          2.1210    4.8920    1.4690 hc        1 75D      0.027867
     25 H6          1.1580    3.9640    2.6830 hc        1 75D      0.027867
     26 H7          0.5510    4.1280    0.9810 hc        1 75D      0.027867
     27 H8          2.9160    4.6050   -0.4670 ha        1 75D      0.113500
     28 H9          3.3770    5.6660   -2.4310 hc        1 75D      0.038700
     29 H10         4.1340    3.7470   -4.7380 hc        1 75D      0.029200
     30 H11         4.6670    5.4700   -4.5430 hc        1 75D      0.029200
     31 H12         5.1850    4.2140   -3.3390 hc        1 75D      0.029200
     32 H13         1.6940    4.5720   -4.7860 hc        1 75D      0.029200
     33 H14         1.0920    5.5960   -3.4190 hc        1 75D      0.029200
     34 H15         2.3070    6.2680   -4.5890 hc        1 75D      0.029200
     35 H16         2.3040    2.4240   -4.1260 ha        1 75D      0.113500
     36 H17         1.0010   -0.6120   -2.3610 hc        1 75D      0.098700
     37 H18        -0.3690    1.1390   -3.6060 hc        1 75D      0.027867
     38 H19         0.8610    1.0890   -4.9370 hc        1 75D      0.027867
     39 H20        -0.0560   -0.4070   -4.5010 hc        1 75D      0.027867
     40 H21         3.3190   -1.0000   -2.9670 hc        1 75D      0.027867
     41 H22         3.2210    0.1470   -4.3830 hc        1 75D      0.027867
     42 H23         2.2700   -1.3970   -4.3980 hc        1 75D      0.027867
@<TRIPOS>BOND
     1    1    2 1   
     2    2    3 1   
     3    2    4 1   
     4    2    5 1   
     5    5    6 ar  
     6    5   16 ar  
     7    6    7 1   
     8    6   10 ar  
     9    7    8 1   
    10    7    9 1   
    11    7   20 1   
    12    8   21 1   
    13    8   22 1   
    14    8   23 1   
    15    9   24 1   
    16    9   25 1   
    17    9   26 1   
    18   10   11 ar  
    19   10   27 1   
    20   11   12 1   
    21   11   15 ar  
    22   12   13 1   
    23   12   14 1   
    24   12   28 1   
    25   13   29 1   
    26   13   30 1   
    27   13   31 1   
    28   14   32 1   
    29   14   33 1   
    30   14   34 1   
    31   15   16 ar  
    32   15   35 1   
    33   16   17 1   
    34   17   18 1   
    35   17   19 1   
    36   17   36 1   
    37   18   37 1   
    38   18   38 1   
    39   18   39 1   
    40   19   40 1   
    41   19   41 1   
    42   19   42 1   
@<TRIPOS>SUBSTRUCTURE
     1 75D         1 TEMP              0 ****  ****    0 ROOT
