@<TRIPOS>MOLECULE
75V
   47    47     1     0     0
SMALL
bcc


@<TRIPOS>ATOM
      1 C9         -4.5060   -0.6170    0.1660 c         1 75V      0.645100
      2 O2         -5.4720    0.1360    0.3060 o         1 75V     -0.536000
      3 O3         -4.5130   -1.8210    0.8080 os        1 75V     -0.426900
      4 C10        -5.6680   -2.1110    1.6160 c3        1 75V      0.140400
      5 C11        -5.4210   -3.4690    2.2270 c3        1 75V     -0.101100
      6 C4         -1.4910    1.4070   -1.3170 c         1 75V      0.663100
      7 C3         -2.9220    0.9820   -1.0710 cx        1 75V      0.018100
      8 C2         -3.2550   -0.3990   -0.6110 cx        1 75V     -0.000900
      9 O1         -3.4480    0.0040   -1.9770 os        1 75V     -0.346600
     10 O4         -1.2070    2.0810   -2.3250 o         1 75V     -0.586100
     11 N1         -0.5940    1.1050   -0.3180 n         1 75V     -0.519900
     12 C5          0.8370    1.2110   -0.5050 c3        1 75V      0.007700
     13 C6          1.5080   -0.1950   -0.5590 c         1 75V      0.626100
     14 O5          0.8860   -1.1990   -0.1430 o         1 75V     -0.647100
     15 C12         1.5370    2.0070    0.6220 c3        1 75V     -0.086700
     16 C14         1.2420    1.4270    1.9990 c3        1 75V     -0.071400
     17 C13         1.1600    3.4690    0.5480 c3        1 75V     -0.081100
     18 C15         2.3790    1.6920    2.9550 c3        1 75V     -0.106100
     19 N2          2.7590   -0.2580   -1.1410 n         1 75V     -0.477900
     20 C7          3.7400   -1.2130   -0.6320 c3        1 75V     -0.072300
     21 C8          4.7330   -0.5510    0.3910 c         1 75V      0.902600
     22 O6          5.5770   -1.3100    0.9320 o         1 75V     -0.834800
     23 C16         4.5500   -1.8450   -1.7560 c3        1 75V     -0.073100
     24 O7          4.6210    0.6900    0.6200 o         1 75V     -0.834800
     25 H101       -6.5760   -2.1030    0.9570 h1        1 75V      0.050200
     26 H102       -5.7730   -1.3110    2.3940 h1        1 75V      0.050200
     27 H111       -4.4940   -3.4560    2.8480 hc        1 75V      0.049033
     28 H112       -6.2910   -3.7400    2.8710 hc        1 75V      0.049033
     29 H113       -5.2980   -4.2410    1.4310 hc        1 75V      0.049033
     30 H3         -3.6100    1.8280   -0.8630 h1        1 75V      0.128700
     31 H2         -2.4750   -1.1770   -0.4630 h1        1 75V      0.146700
     32 HN1        -0.8670    0.4330    0.3690 hn        1 75V      0.318500
     33 H5          1.0210    1.7490   -1.4840 h1        1 75V      0.094700
     34 H12         2.6540    1.9150    0.4440 hc        1 75V      0.123700
     35 H141        0.2890    1.8590    2.4000 hc        1 75V      0.033200
     36 H142        1.0970    0.3160    1.9110 hc        1 75V      0.033200
     37 H131        1.4010    3.8850   -0.4590 hc        1 75V      0.029367
     38 H132        0.0700    3.6180    0.7400 hc        1 75V      0.029367
     39 H133        1.7330    4.0430    1.3170 hc        1 75V      0.029367
     40 H151        3.3360    1.2760    2.5390 hc        1 75V      0.043700
     41 H152        2.5120    2.7880    3.1170 hc        1 75V      0.043700
     42 H153        2.1740    1.2100    3.9410 hc        1 75V      0.043700
     43 HN2         3.1870    0.6400   -1.2830 hn        1 75V      0.295500
     44 H7          3.1920   -2.0300   -0.0800 h1        1 75V      0.072700
     45 H161        5.3260   -2.4980   -1.2860 hc        1 75V      0.029033
     46 H162        3.9050   -2.4610   -2.4270 hc        1 75V      0.029033
     47 H163        5.0640   -1.0680   -2.3700 hc        1 75V      0.029033
@<TRIPOS>BOND
     1    1    2 2   
     2    1    3 1   
     3    1    8 1   
     4    3    4 1   
     5    4    5 1   
     6    4   25 1   
     7    4   26 1   
     8    5   27 1   
     9    5   28 1   
    10    5   29 1   
    11    6    7 1   
    12    6   10 2   
    13    6   11 1   
    14    7    8 1   
    15    7    9 1   
    16    7   30 1   
    17    8    9 1   
    18    8   31 1   
    19   11   12 1   
    20   11   32 1   
    21   12   13 1   
    22   12   15 1   
    23   12   33 1   
    24   13   14 2   
    25   13   19 1   
    26   15   16 1   
    27   15   17 1   
    28   15   34 1   
    29   16   18 1   
    30   16   35 1   
    31   16   36 1   
    32   17   37 1   
    33   17   38 1   
    34   17   39 1   
    35   18   40 1   
    36   18   41 1   
    37   18   42 1   
    38   19   20 1   
    39   19   43 1   
    40   20   21 1   
    41   20   23 1   
    42   20   44 1   
    43   21   22 1   
    44   21   24 1   
    45   23   45 1   
    46   23   46 1   
    47   23   47 1   
@<TRIPOS>SUBSTRUCTURE
     1 75V         1 TEMP              0 ****  ****    0 ROOT
