@<TRIPOS>MOLECULE
75V
   49    49     1     0     0
SMALL
bcc


@<TRIPOS>ATOM
      1 C9          0.3010   -1.2230    0.5370 c         1 75V      0.637100
      2 O2          1.2830   -1.9200    0.3010 o         1 75V     -0.468000
      3 O3          0.2990   -0.3310    1.5590 os        1 75V     -0.441900
      4 C10         1.5000   -0.2850    2.3720 c3        1 75V      0.142400
      5 C11         1.2400    0.7540    3.4320 c3        1 75V     -0.107100
      6 C4         -2.9150    0.2520   -1.1440 c         1 75V      0.554100
      7 C3         -1.9840   -0.1510   -0.0480 cx        1 75V     -0.020900
      8 C2         -0.9730   -1.2350   -0.2480 cx        1 75V      0.073100
      9 O1         -2.1840   -1.4580    0.4960 os        1 75V     -0.361600
     10 O4         -2.7000    1.0710   -2.0210 o         1 75V     -0.380100
     11 N1         -4.2680   -0.4130   -1.0850 n4        1 75V     -0.670800
     12 C5         -5.1870   -0.1150   -2.2340 c3        1 75V      0.036500
     13 C6         -6.1850    1.0060   -1.8330 c         1 75V      0.652100
     14 O5         -6.3600    1.2600   -0.6250 o         1 75V     -0.595100
     15 C12        -5.9910   -1.3630   -2.6630 c3        1 75V     -0.092700
     16 C14        -6.7130   -2.0140   -1.4890 c3        1 75V     -0.094400
     17 C13        -5.0970   -2.3480   -3.3830 c3        1 75V     -0.113100
     18 C15        -7.9620   -2.7280   -1.9440 c3        1 75V     -0.104100
     19 N2         -6.7890    1.6940   -2.8570 n         1 75V     -0.493900
     20 C7         -8.0430    2.3910   -2.6280 c3        1 75V     -0.002300
     21 C8         -9.2380    1.4400   -2.7710 c         1 75V      0.602100
     22 O6         -9.1870    0.2840   -3.1940 o         1 75V     -0.505000
     23 C16        -8.2280    3.5660   -3.5860 c3        1 75V     -0.110100
     24 O7        -10.4730    1.8560   -2.3990 oh        1 75V     -0.541100
     25 H101        2.3610   -0.0120    1.7070 h1        1 75V      0.068200
     26 H102        1.6690   -1.3050    2.8050 h1        1 75V      0.068200
     27 H111        0.3540    0.4760    4.0510 hc        1 75V      0.059033
     28 H112        2.1390    0.8220    4.0930 hc        1 75V      0.059033
     29 H113        1.0520    1.7530    2.9720 hc        1 75V      0.059033
     30 H3         -1.8040    0.6630    0.6950 h1        1 75V      0.189700
     31 H2         -0.8940   -1.8070   -1.1980 h1        1 75V      0.144700
     32 HN1        -4.1260   -1.4320   -1.0200 hn        1 75V      0.487300
     33 H5         -4.5480    0.2300   -3.1030 hx        1 75V      0.132700
     34 H12        -6.7740   -0.9960   -3.3930 hc        1 75V      0.116700
     35 H141       -7.0010   -1.2280   -0.7390 hc        1 75V      0.045700
     36 H142       -6.0320   -2.7440   -0.9760 hc        1 75V      0.045700
     37 H131       -4.5750   -1.8610   -4.2430 hc        1 75V      0.056367
     38 H132       -5.7230   -3.1860   -3.7850 hc        1 75V      0.056367
     39 H133       -4.3330   -2.7940   -2.7020 hc        1 75V      0.056367
     40 H151       -8.4600   -3.2140   -1.0690 hc        1 75V      0.060033
     41 H152       -8.6830   -2.0070   -2.4060 hc        1 75V      0.060033
     42 H153       -7.7180   -3.5180   -2.6940 hc        1 75V      0.060033
     43 HN2       -10.4410    2.7690   -2.0740 ho        1 75V      0.440000
     44 H7         -8.0340    2.7760   -1.5600 h1        1 75V      0.117700
     45 H161       -8.2430    3.2270   -4.6500 hc        1 75V      0.069367
     46 H162       -9.1990    4.0700   -3.3600 hc        1 75V      0.069367
     47 H163       -7.4030    4.3090   -3.4570 hc        1 75V      0.069367
     48 H121       -4.7350   -0.1040   -0.2080 hn        1 75V      0.487300
     49 H22        -6.6600    1.3570   -3.7890 hn        1 75V      0.327500
@<TRIPOS>BOND
     1    1    2 2   
     2    1    3 1   
     3    1    8 1   
     4    3    4 1   
     5    4    5 1   
     6    4   25 1   
     7    4   26 1   
     8    5   27 1   
     9    5   28 1   
    10    5   29 1   
    11    6    7 1   
    12    6   10 2   
    13    6   11 1   
    14    7    8 1   
    15    7    9 1   
    16    7   30 1   
    17    8    9 1   
    18    8   31 1   
    19   11   12 1   
    20   11   32 1   
    21   11   48 1   
    22   12   13 1   
    23   12   15 1   
    24   12   33 1   
    25   13   14 2   
    26   13   19 1   
    27   15   16 1   
    28   15   17 1   
    29   15   34 1   
    30   16   18 1   
    31   16   35 1   
    32   16   36 1   
    33   17   37 1   
    34   17   38 1   
    35   17   39 1   
    36   18   40 1   
    37   18   41 1   
    38   18   42 1   
    39   19   20 1   
    40   19   49 1   
    41   20   21 1   
    42   20   23 1   
    43   20   44 1   
    44   21   22 2   
    45   21   24 1   
    46   23   45 1   
    47   23   46 1   
    48   23   47 1   
    49   24   43 1   
@<TRIPOS>SUBSTRUCTURE
     1 75V         1 TEMP              0 ****  ****    0 ROOT
