@<TRIPOS>MOLECULE
75V
   49    43     1     0     0
SMALL
bcc


@<TRIPOS>ATOM
      1 C9         -1.4120    0.2320   -0.6960 c2        1 75V      0.233000
      2 O2         -2.1860    0.3560   -1.6550 o         1 75V     -0.367000
      3 O3         -0.1770    0.7760   -0.7950 oh        1 75V     -0.291000
      4 C10         2.9280    0.0680    0.5250 c2        1 75V     -0.221500
      5 C11         3.1140    0.4360    1.7850 c2        1 75V     -0.221500
      6 C3         -2.0030   -2.4050    1.6890 c1        1 75V      0.229000
      7 C2         -1.7740   -0.3120    0.6480 c1        1 75V      0.162000
      8 O1         -1.4280   -1.6210    0.7980 os        1 75V     -0.144000
      9 O4         -4.2750   -1.6680    1.6360 o         1 75V     -0.417000
     10 N1         -3.3390   -1.8610    3.7150 n         1 75V     -0.383000
     11 C5         -5.2910   -1.0000   -1.1470 c3        1 75V     -0.226000
     12 C6         -6.1240   -0.1320   -0.2630 c2        1 75V      0.237000
     13 O5         -7.0170    0.6260   -0.6690 o         1 75V     -0.409000
     14 C12        -5.7310   -1.1350   -2.5640 c2        1 75V     -0.069000
     15 C14        -7.0180   -1.3710   -2.8770 c2        1 75V     -0.247000
     16 C13        -4.6460   -1.0650   -3.5710 c3        1 75V     -0.208000
     17 C15        -7.5290   -1.6000   -4.2410 c3        1 75V     -0.197000
     18 N2         -8.1370    1.3790   -3.0330 n4        1 75V     -0.029000
     19 C7         -7.8900    2.5970   -3.7810 c2        1 75V     -0.202000
     20 C8        -11.8030    0.1370   -1.9480 c1        1 75V      0.448000
     21 O6        -12.8430   -0.2170   -1.5120 o         1 75V     -0.223500
     22 C16        -8.3580    2.8300   -5.0100 c2        1 75V     -0.128000
     23 O7        -10.7490    0.4940   -2.3920 o         1 75V     -0.223500
     24 H101       -0.0660    1.2200   -1.6550 ho        1 75V      0.259000
     25 H102        2.0310    0.3440   -0.0480 ha        1 75V      0.110750
     26 H111        3.6590   -0.5350   -0.0310 ha        1 75V      0.110750
     27 H112        2.3840    1.0430    2.3380 ha        1 75V      0.110750
     28 H113        4.0110    0.1660    2.3580 ha        1 75V      0.110750
     29 H3          0.2950    0.3730    1.4310 ha        1 75V      0.019000
     30 H2         -0.2420    0.6060    1.7860 ha        1 75V      0.019000
     31 HN1        -2.5730   -2.1450    4.2740 hn        1 75V      0.243000
     32 H5         -5.2470   -2.0240   -0.6720 hc        1 75V      0.152000
     33 H12        -4.2380   -0.5880   -1.1010 hc        1 75V      0.152000
     34 H141       -7.2390    0.9380   -2.7410 hn        1 75V      0.269000
     35 H142       -7.7630   -1.4680   -2.0670 ha        1 75V      0.126000
     36 H131       -4.1420   -2.0630   -3.6410 hc        1 75V      0.101667
     37 H132       -5.0370   -0.8050   -4.5850 hc        1 75V      0.101667
     38 H133       -3.8710   -0.3090   -3.2800 hc        1 75V      0.101667
     39 H151       -7.1740   -2.5920   -4.6250 hc        1 75V      0.086333
     40 H152       -7.1730   -0.8160   -4.9570 hc        1 75V      0.086333
     41 H153       -8.6480   -1.6120   -4.2530 hc        1 75V      0.086333
     42 HN2        -8.6610    1.5920   -2.1710 hn        1 75V      0.269000
     43 H7         -8.6730    0.6890   -3.5730 hn        1 75V      0.269000
     44 H161       -7.2660    3.3170   -3.2140 hx        1 75V      0.197000
     45 H162       -8.9810    2.1300   -5.5870 ha        1 75V      0.162500
     46 H163       -8.1280    3.7810   -5.5170 ha        1 75V      0.162500
     47 H121       -4.2000   -1.6520    4.1630 hn        1 75V      0.243000
     48 H22        -5.8750   -0.1980    0.8230 h4        1 75V      0.149000
     49 C4         -3.2780   -1.9170    2.3600 c2        1 75V      0.198000
@<TRIPOS>BOND
     1    1    2 1   
     2    1    3 1   
     3    1    7 1   
     4    3   24 1   
     5    4    5 1   
     6    4   25 1   
     7    4   26 1   
     8    5   27 1   
     9    5   28 1   
    10    6    8 1   
    11    6   49 1   
    12    7    8 1   
    13    9   49 1   
    14   10   31 1   
    15   10   47 1   
    16   10   49 1   
    17   11   12 1   
    18   11   14 1   
    19   11   32 1   
    20   11   33 1   
    21   12   13 1   
    22   12   48 1   
    23   14   15 1   
    24   14   16 1   
    25   15   17 1   
    26   15   35 1   
    27   16   36 1   
    28   16   37 1   
    29   16   38 1   
    30   17   39 1   
    31   17   40 1   
    32   17   41 1   
    33   18   19 1   
    34   18   34 1   
    35   18   42 1   
    36   18   43 1   
    37   19   22 1   
    38   19   44 1   
    39   20   21 1   
    40   20   23 1   
    41   22   45 1   
    42   22   46 1   
    43   29   30 1   
@<TRIPOS>SUBSTRUCTURE
     1 75V         1 TEMP              0 ****  ****    0 ROOT
