@<TRIPOS>MOLECULE
75X
   49    52     1     0     0
SMALL
bcc


@<TRIPOS>ATOM
      1 N1          0.1130    0.2500   -0.2450 nb        1 75X     -0.808000
      2 C2          1.5110    0.3680   -0.1930 ca        1 75X      0.877900
      3 N2          2.1780    0.3090   -1.4290 nh        1 75X     -0.917500
      4 N3          2.2920    0.4740    0.9370 nb        1 75X     -0.717000
      5 C4          1.6060    0.4020    2.1120 ca        1 75X      0.604300
      6 C5          0.1520    0.2480    2.1590 ca        1 75X     -0.378800
      7 C6         -0.5410    0.1820    0.9260 ca        1 75X      0.717600
      8 O6         -1.9080    0.0600    1.0140 os        1 75X     -0.456100
      9 N7         -0.2060    0.2210    3.5030 na        1 75X     -0.236300
     10 C8          0.9940    0.3460    4.2300 cc        1 75X      0.490400
     11 N9          2.0940    0.4620    3.4390 nd        1 75X     -0.629700
     12 CAK        -2.6420   -0.0290   -0.2230 c3        1 75X      0.141400
     13 CAL        -4.1060   -0.1850    0.1770 c3        1 75X     -0.072700
     14 CAN         0.9840    0.3750    5.7000 ca        1 75X     -0.102900
     15 CAO         0.1220    1.2770    6.3400 ca        1 75X     -0.143000
     16 CAP         0.0860    1.3460    7.7280 ca        1 75X     -0.103000
     17 CAQ         0.9050    0.5160    8.4910 ca        1 75X     -0.194000
     18 CAR         1.7640   -0.3830    7.8480 ca        1 75X      0.115100
     19 CAS         1.8210   -0.4740    6.4380 ca        1 75X     -0.039300
     20 CAT         2.7440   -1.4330    5.7890 c3        1 75X     -0.056800
     21 OAU         2.5930   -1.2270    8.5540 oh        1 75X     -0.493100
     22 CAV        -4.9920    0.1410   -1.0170 c3        1 75X     -0.073400
     23 CAW        -6.4550   -0.0390   -0.6700 c3        1 75X     -0.075900
     24 CAX        -6.7350   -1.4340   -0.1510 c3        1 75X     -0.078400
     25 CAY        -5.8460   -1.7700    1.0290 c3        1 75X     -0.075900
     26 CAZ        -4.3830   -1.5940    0.6810 c3        1 75X     -0.073400
     27 HN2         1.6350    0.5500   -2.2260 hn        1 75X      0.420800
     28 HN2A        3.1120    0.6540   -1.4300 hn        1 75X      0.420800
     29 HN7        -1.1150    0.0990    3.8620 hn        1 75X      0.318700
     30 HAK        -2.2800   -0.9110   -0.8100 h1        1 75X      0.057200
     31 HAKA       -2.4840    0.9130   -0.8090 h1        1 75X      0.057200
     32 HAL        -4.3300    0.5420    1.0070 hc        1 75X      0.063700
     33 HAO        -0.5150    1.9470    5.7430 ha        1 75X      0.139000
     34 HAP        -0.5870    2.0590    8.2280 ha        1 75X      0.138000
     35 HAQ         0.8820    0.5690    9.5890 ha        1 75X      0.137000
     36 HAT         3.6470   -0.8910    5.4090 hc        1 75X      0.061367
     37 HATA        2.2480   -1.9370    4.9230 hc        1 75X      0.061367
     38 HATB        3.0810   -2.2160    6.5130 hc        1 75X      0.061367
     39 HOAU        2.4600   -1.0530    9.4970 ho        1 75X      0.420000
     40 HAV        -4.8100    1.1990   -1.3420 hc        1 75X      0.044200
     41 HAVA       -4.7220   -0.5280   -1.8750 hc        1 75X      0.044200
     42 HAW        -6.7500    0.7150    0.1070 hc        1 75X      0.040950
     43 HAWA       -7.0790    0.1550   -1.5820 hc        1 75X      0.040950
     44 HAX        -6.5640   -2.1790   -0.9720 hc        1 75X      0.040700
     45 HAXA       -7.8110   -1.5120    0.1540 hc        1 75X      0.040700
     46 HAY        -6.1080   -1.1070    1.8950 hc        1 75X      0.040950
     47 HAYA       -6.0290   -2.8290    1.3480 hc        1 75X      0.040950
     48 HAZ        -4.0920   -2.3370   -0.1060 hc        1 75X      0.044200
     49 HAZA       -3.7480   -1.7910    1.5840 hc        1 75X      0.044200
@<TRIPOS>BOND
     1    1    2 ar  
     2    1    7 ar  
     3    2    3 1   
     4    2    4 ar  
     5    3   27 1   
     6    3   28 1   
     7    4    5 ar  
     8    5    6 ar  
     9    5   11 1   
    10    6    7 ar  
    11    6    9 1   
    12    7    8 1   
    13    8   12 1   
    14    9   10 1   
    15    9   29 1   
    16   10   11 2   
    17   10   14 1   
    18   12   13 1   
    19   12   30 1   
    20   12   31 1   
    21   13   22 1   
    22   13   26 1   
    23   13   32 1   
    24   14   15 ar  
    25   14   19 ar  
    26   15   16 ar  
    27   15   33 1   
    28   16   17 ar  
    29   16   34 1   
    30   17   18 ar  
    31   17   35 1   
    32   18   19 ar  
    33   18   21 1   
    34   19   20 1   
    35   20   36 1   
    36   20   37 1   
    37   20   38 1   
    38   21   39 1   
    39   22   23 1   
    40   22   40 1   
    41   22   41 1   
    42   23   24 1   
    43   23   42 1   
    44   23   43 1   
    45   24   25 1   
    46   24   44 1   
    47   24   45 1   
    48   25   26 1   
    49   25   46 1   
    50   25   47 1   
    51   26   48 1   
    52   26   49 1   
@<TRIPOS>SUBSTRUCTURE
     1 75X         1 TEMP              0 ****  ****    0 ROOT
