@<TRIPOS>MOLECULE
75X
   49    52     1     0     0
SMALL
bcc


@<TRIPOS>ATOM
      1 N1          0.1030    0.2590   -0.2580 nb        1 75X     -0.808000
      2 C2          1.5010    0.3860   -0.2110 ca        1 75X      0.877900
      3 N2          2.1640    0.3280   -1.4500 nv        1 75X     -0.917500
      4 N3          2.2850    0.5010    0.9160 nb        1 75X     -0.717000
      5 C4          1.6040    0.4280    2.0930 ca        1 75X      0.604300
      6 C5          0.1510    0.2640    2.1460 ca        1 75X     -0.378800
      7 C6         -0.5460    0.1900    0.9150 ca        1 75X      0.717600
      8 O6         -1.9120    0.0580    1.0090 os        1 75X     -0.456100
      9 N7         -0.2030    0.2380    3.4910 na        1 75X     -0.236300
     10 C8          0.9990    0.3730    4.2140 cc        1 75X      0.490400
     11 N9          2.0950    0.4950    3.4190 nd        1 75X     -0.629700
     12 CAK        -2.6500   -0.0400   -0.2260 c3        1 75X      0.141400
     13 CAL        -4.1110   -0.2060    0.1800 c3        1 75X     -0.072700
     14 CAN         0.9940    0.4060    5.6840 ca        1 75X     -0.102900
     15 CAO         0.1280    1.3060    6.3240 ca        1 75X     -0.143000
     16 CAP         0.0970    1.3780    7.7120 ca        1 75X     -0.103000
     17 CAQ         0.9230    0.5550    8.4750 ca        1 75X     -0.194000
     18 CAR         1.7860   -0.3400    7.8310 ca        1 75X      0.115100
     19 CAS         1.8390   -0.4350    6.4210 ca        1 75X     -0.039300
     20 CAT         2.7650   -1.3890    5.7720 c3        1 75X     -0.056800
     21 OAU         2.6220   -1.1770    8.5370 oh        1 75X     -0.493100
     22 CAV        -5.0030    0.1090   -1.0120 c3        1 75X     -0.073400
     23 CAW        -6.4640   -0.0810   -0.6610 c3        1 75X     -0.075900
     24 CAX        -6.7320   -1.4760   -0.1350 c3        1 75X     -0.078400
     25 CAY        -5.8360   -1.8000    1.0440 c3        1 75X     -0.075900
     26 CAZ        -4.3750   -1.6150    0.6910 c3        1 75X     -0.073400
     27 HN2         1.6160    0.5640   -2.2450 hn        1 75X      0.420800
     28 HN2A        3.0950    0.6800   -1.4540 hn        1 75X      0.420800
     29 HN7        -1.1100    0.1110    3.8530 hn        1 75X      0.318700
     30 HAK        -2.5000    0.9010   -0.8160 h1        1 75X      0.057200
     31 HAKA       -2.2830   -0.9220   -0.8110 h1        1 75X      0.057200
     32 HAL        -4.3370    0.5230    1.0080 hc        1 75X      0.063700
     33 HAO        -0.5150    1.9690    5.7270 ha        1 75X      0.139000
     34 HAP        -0.5790    2.0880    8.2120 ha        1 75X      0.138000
     35 HAQ         0.9030    0.6110    9.5720 ha        1 75X      0.137000
     36 HAT         2.2700   -1.9000    4.9090 hc        1 75X      0.061367
     37 HATA        3.6640   -0.8430    5.3870 hc        1 75X      0.061367
     38 HATB        3.1090   -2.1690    6.4970 hc        1 75X      0.061367
     39 HOAU        2.4910   -1.0020    9.4800 ho        1 75X      0.420000
     40 HAV        -4.8300    1.1670   -1.3420 hc        1 75X      0.044200
     41 HAVA       -4.7300   -0.5620   -1.8690 hc        1 75X      0.044200
     42 HAW        -6.7620    0.6740    0.1140 hc        1 75X      0.040950
     43 HAWA       -7.0920    0.1050   -1.5710 hc        1 75X      0.040950
     44 HAX        -6.5570   -2.2230   -0.9530 hc        1 75X      0.040700
     45 HAXA       -7.8060   -1.5600    0.1750 hc        1 75X      0.040700
     46 HAY        -6.1000   -1.1360    1.9080 hc        1 75X      0.040950
     47 HAYA       -6.0100   -2.8590    1.3680 hc        1 75X      0.040950
     48 HAZ        -3.7360   -1.8030    1.5920 hc        1 75X      0.044200
     49 HAZA       -4.0820   -2.3590   -0.0950 hc        1 75X      0.044200
@<TRIPOS>BOND
     1    1    2 ar  
     2    1    7 ar  
     3    2    3 1   
     4    2    4 ar  
     5    3   27 1   
     6    3   28 1   
     7    4    5 ar  
     8    5    6 ar  
     9    5   11 1   
    10    6    7 ar  
    11    6    9 1   
    12    7    8 1   
    13    8   12 1   
    14    9   10 1   
    15    9   29 1   
    16   10   11 2   
    17   10   14 1   
    18   12   13 1   
    19   12   30 1   
    20   12   31 1   
    21   13   22 1   
    22   13   26 1   
    23   13   32 1   
    24   14   15 ar  
    25   14   19 ar  
    26   15   16 ar  
    27   15   33 1   
    28   16   17 ar  
    29   16   34 1   
    30   17   18 ar  
    31   17   35 1   
    32   18   19 ar  
    33   18   21 1   
    34   19   20 1   
    35   20   36 1   
    36   20   37 1   
    37   20   38 1   
    38   21   39 1   
    39   22   23 1   
    40   22   40 1   
    41   22   41 1   
    42   23   24 1   
    43   23   42 1   
    44   23   43 1   
    45   24   25 1   
    46   24   44 1   
    47   24   45 1   
    48   25   26 1   
    49   25   46 1   
    50   25   47 1   
    51   26   48 1   
    52   26   49 1   
@<TRIPOS>SUBSTRUCTURE
     1 75X         1 TEMP              0 ****  ****    0 ROOT
