@<TRIPOS>MOLECULE
760
   42    45     1     0     0
SMALL
bcc


@<TRIPOS>ATOM
      1 C1         -0.3280    0.4580   -0.4450 c3        1 760     -0.132700
      2 C2          1.1450    0.1770   -0.6260 c3        1 760     -0.080400
      3 C3          1.7740   -0.1870    0.6980 c3        1 760     -0.078400
      4 C4          1.7040    0.9870    1.6510 c3        1 760     -0.025100
      5 C5          0.0330    2.4710    2.7930 ca        1 760      0.149600
      6 C6         -1.7200    3.9430    3.8560 ca        1 760     -0.121000
      7 C7         -2.9910    4.4650    3.8510 ca        1 760     -0.132000
      8 C8         -3.8960    4.1360    2.8160 ca        1 760     -0.125000
      9 C9         -3.5120    3.3020    1.7990 ca        1 760     -0.167300
     10 N10        -1.8440    1.9210    0.7290 nb        1 760     -0.687000
     11 C11        -0.6250    1.3870    0.7060 ca        1 760      0.455600
     12 C12         0.3610    1.6240    1.7260 ca        1 760     -0.201600
     13 C13        -1.2850    3.0620    2.8300 ca        1 760     -0.176300
     14 C14        -2.1900    2.7430    1.7750 ca        1 760      0.414600
     15 N15         0.9420    2.6580    3.8610 nh        1 760     -0.723600
     16 C17         2.1600    3.3970    3.5950 c3        1 760      0.222100
     17 C18         2.2070    4.7980    4.1350 ca        1 760     -0.126300
     18 C19         3.2510    5.1810    4.9830 ca        1 760     -0.122500
     19 C20         3.3240    6.4910    5.4560 ca        1 760     -0.129000
     20 C21         2.3540    7.4230    5.0880 ca        1 760     -0.125000
     21 C22         1.3100    7.0430    4.2450 ca        1 760     -0.129000
     22 C23         1.2360    5.7350    3.7690 ca        1 760     -0.122500
     23 H12        -0.8690   -0.5090   -0.2480 hc        1 760      0.065200
     24 H11        -0.7430    0.8830   -1.3980 hc        1 760      0.065200
     25 H22A        1.2720   -0.6630   -1.3580 hc        1 760      0.045200
     26 H21A        1.6600    1.0770   -1.0550 hc        1 760      0.045200
     27 H32         2.8460   -0.4790    0.5500 hc        1 760      0.045200
     28 H31         1.2420   -1.0710    1.1390 hc        1 760      0.045200
     29 H42         2.0210    0.6390    2.6720 hc        1 760      0.054200
     30 H41         2.4490    1.7610    1.3170 hc        1 760      0.054200
     31 H6         -1.0380    4.2340    4.6700 ha        1 760      0.130000
     32 H7         -3.3180    5.1450    4.6510 ha        1 760      0.133000
     33 H8         -4.9100    4.5620    2.8360 ha        1 760      0.135000
     34 H9         -4.2100    3.0450    0.9860 ha        1 760      0.150000
     35 H15         0.4890    2.9780    4.6950 hn        1 760      0.392800
     36 H171        2.3520    3.4480    2.4840 h1        1 760      0.062200
     37 H172        2.9950    2.7920    4.0590 h1        1 760      0.062200
     38 H19         4.0180    4.4490    5.2780 ha        1 760      0.138000
     39 H20         4.1480    6.7880    6.1210 ha        1 760      0.134000
     40 H21         2.4130    8.4560    5.4620 ha        1 760      0.133000
     41 H22         0.5440    7.7770    3.9520 ha        1 760      0.134000
     42 H23         0.4100    5.4370    3.1030 ha        1 760      0.138000
@<TRIPOS>BOND
     1    1    2 1   
     2    1   11 1   
     3    1   23 1   
     4    1   24 1   
     5    2    3 1   
     6    2   25 1   
     7    2   26 1   
     8    3    4 1   
     9    3   27 1   
    10    3   28 1   
    11    4   12 1   
    12    4   29 1   
    13    4   30 1   
    14    5   12 ar  
    15    5   13 ar  
    16    5   15 1   
    17    6    7 ar  
    18    6   13 ar  
    19    6   31 1   
    20    7    8 ar  
    21    7   32 1   
    22    8    9 ar  
    23    8   33 1   
    24    9   14 ar  
    25    9   34 1   
    26   10   11 ar  
    27   10   14 ar  
    28   11   12 ar  
    29   13   14 ar  
    30   15   16 1   
    31   15   35 1   
    32   16   17 1   
    33   16   36 1   
    34   16   37 1   
    35   17   18 ar  
    36   17   22 ar  
    37   18   19 ar  
    38   18   38 1   
    39   19   20 ar  
    40   19   39 1   
    41   20   21 ar  
    42   20   40 1   
    43   21   22 ar  
    44   21   41 1   
    45   22   42 1   
@<TRIPOS>SUBSTRUCTURE
     1 760         1 TEMP              0 ****  ****    0 ROOT
