@<TRIPOS>MOLECULE
760
   42    45     1     0     0
SMALL
bcc


@<TRIPOS>ATOM
      1 C1         -0.3270    0.4550   -0.4430 c3        1 760     -0.132700
      2 C2          1.1470    0.1830   -0.6310 c3        1 760     -0.080400
      3 C3          1.7840   -0.1790    0.6890 c3        1 760     -0.078400
      4 C4          1.7110    0.9940    1.6430 c3        1 760     -0.025100
      5 C5          0.0380    2.4680    2.7940 ca        1 760      0.149600
      6 C6         -1.7180    3.9300    3.8670 ca        1 760     -0.121000
      7 C7         -2.9920    4.4450    3.8680 ca        1 760     -0.132000
      8 C8         -3.8990    4.1120    2.8360 ca        1 760     -0.125000
      9 C9         -3.5160    3.2800    1.8170 ca        1 760     -0.167300
     10 N10        -1.8460    1.9090    0.7390 nb        1 760     -0.687000
     11 C11        -0.6240    1.3820    0.7100 ca        1 760      0.455600
     12 C12         0.3660    1.6240    1.7250 ca        1 760     -0.201600
     13 C13        -1.2830    3.0520    2.8380 ca        1 760     -0.176300
     14 C14        -2.1910    2.7280    1.7870 ca        1 760      0.414600
     15 N15         0.9510    2.6600    3.8580 nu        1 760     -0.723600
     16 C17         2.1640    3.4060    3.5870 c3        1 760      0.222100
     17 C18         2.2050    4.8070    4.1270 ca        1 760     -0.126300
     18 C19         3.2510    5.1960    4.9710 ca        1 760     -0.122500
     19 C20         3.3180    6.5060    5.4440 ca        1 760     -0.129000
     20 C21         2.3410    7.4330    5.0820 ca        1 760     -0.125000
     21 C22         1.2950    7.0480    4.2430 ca        1 760     -0.129000
     22 C23         1.2260    5.7390    3.7670 ca        1 760     -0.122500
     23 H12        -0.7500    0.8780   -1.3940 hc        1 760      0.065200
     24 H11        -0.8620   -0.5150   -0.2440 hc        1 760      0.065200
     25 H22A        1.2750   -0.6560   -1.3650 hc        1 760      0.045200
     26 H21A        1.6540    1.0860   -1.0620 hc        1 760      0.045200
     27 H32         1.2600   -1.0660    1.1330 hc        1 760      0.045200
     28 H31         2.8570   -0.4640    0.5360 hc        1 760      0.045200
     29 H42         2.4510    1.7730    1.3060 hc        1 760      0.054200
     30 H41         2.0350    0.6480    2.6630 hc        1 760      0.054200
     31 H6         -1.0340    4.2250    4.6780 ha        1 760      0.130000
     32 H7         -3.3180    5.1230    4.6700 ha        1 760      0.133000
     33 H8         -4.9160    4.5320    2.8620 ha        1 760      0.135000
     34 H9         -4.2160    3.0210    1.0070 ha        1 760      0.150000
     35 H15         0.5000    2.9770    4.6940 hn        1 760      0.392800
     36 H171        2.3500    3.4590    2.4750 h1        1 760      0.062200
     37 H172        3.0050    2.8060    4.0460 h1        1 760      0.062200
     38 H19         4.0230    4.4680    5.2620 ha        1 760      0.138000
     39 H20         4.1440    6.8070    6.1060 ha        1 760      0.134000
     40 H21         2.3960    8.4660    5.4550 ha        1 760      0.133000
     41 H22         0.5240    7.7770    3.9540 ha        1 760      0.134000
     42 H23         0.4000    5.4370    3.1040 ha        1 760      0.138000
@<TRIPOS>BOND
     1    1    2 1   
     2    1   11 1   
     3    1   23 1   
     4    1   24 1   
     5    2    3 1   
     6    2   25 1   
     7    2   26 1   
     8    3    4 1   
     9    3   27 1   
    10    3   28 1   
    11    4   12 1   
    12    4   29 1   
    13    4   30 1   
    14    5   12 ar  
    15    5   13 ar  
    16    5   15 1   
    17    6    7 ar  
    18    6   13 ar  
    19    6   31 1   
    20    7    8 ar  
    21    7   32 1   
    22    8    9 ar  
    23    8   33 1   
    24    9   14 ar  
    25    9   34 1   
    26   10   11 ar  
    27   10   14 ar  
    28   11   12 ar  
    29   13   14 ar  
    30   15   16 1   
    31   15   35 1   
    32   16   17 1   
    33   16   36 1   
    34   16   37 1   
    35   17   18 ar  
    36   17   22 ar  
    37   18   19 ar  
    38   18   38 1   
    39   19   20 ar  
    40   19   39 1   
    41   20   21 ar  
    42   20   40 1   
    43   21   22 ar  
    44   21   41 1   
    45   22   42 1   
@<TRIPOS>SUBSTRUCTURE
     1 760         1 TEMP              0 ****  ****    0 ROOT
