@<TRIPOS>MOLECULE
760
   42    38     1     0     0
SMALL
bcc


@<TRIPOS>ATOM
      1 C1         -0.2360   -2.6530   -3.3620 c3        1 760     -0.113500
      2 C2          1.1730   -2.6270   -3.3410 c3        1 760     -0.158500
      3 C3          1.8120   -2.5830   -2.0280 c3        1 760     -0.158500
      4 C4          1.3800   -1.5530   -1.1290 c3        1 760     -0.113500
      5 C5         -0.7230   -0.3490   -0.2270 c1        1 760      0.037000
      6 C6         -2.6750    0.8690    0.6010 c1        1 760     -0.122000
      7 C7         -4.0130    1.2170    0.4720 c1        1 760     -0.128000
      8 C8         -4.8110    0.6280   -0.5650 c1        1 760     -0.128000
      9 C9         -4.2440   -0.2960   -1.4490 c1        1 760     -0.098000
     10 N10        -2.3230   -1.5020   -2.2760 n1        1 760     -0.148000
     11 C11        -0.9890   -1.7830   -2.2200 c1        1 760     -0.036000
     12 C12        -0.1540   -1.1850   -1.1560 c1        1 760     -0.036000
     13 C13        -2.1020   -0.0640   -0.2910 c1        1 760     -0.103000
     14 C14        -2.9060   -0.6480   -1.3250 c1        1 760      0.012000
     15 N15        -0.1720    0.5840    0.7330 n3        1 760     -0.269000
     16 C17         0.6960    0.1030    1.7830 c3        1 760     -0.033000
     17 C18         1.5370    1.2850    2.3470 c2        1 760     -0.094000
     18 C19         0.9560    2.2130    3.1730 c2        1 760     -0.124000
     19 C20         1.7220    3.2880    3.6720 c1        1 760     -0.132000
     20 C21         3.0480    3.4010    3.3290 c1        1 760     -0.128000
     21 C22         3.6280    2.4640    2.4980 c1        1 760     -0.128000
     22 C23         2.8740    1.4050    2.0060 c1        1 760     -0.109000
     23 H12        -0.5150   -3.5630   -3.2710 hc        1 760      0.101250
     24 H11        -0.5140   -2.3490   -4.1760 hc        1 760      0.101250
     25 H22A        1.4750   -1.8370   -3.8530 hc        1 760      0.084500
     26 H21A        1.4730   -3.3780   -3.7760 hc        1 760      0.084500
     27 H32         1.6550   -3.4840   -1.5730 hc        1 760      0.084500
     28 H31         2.8350   -2.4680   -2.1770 hc        1 760      0.084500
     29 H42         1.8930   -0.7320   -1.3360 hc        1 760      0.101250
     30 H41         1.5950   -1.8200   -0.2590 hc        1 760      0.101250
     31 H6         -2.1460    1.2590    1.2870 ha        1 760      0.129000
     32 H7         -4.4010    1.8450    1.0710 ha        1 760      0.133500
     33 H8         -5.7970    0.8860   -0.6590 ha        1 760      0.133500
     34 H9         -4.7990   -0.7030   -2.1670 ha        1 760      0.150000
     35 H15        -0.4080    1.4820    0.6970 hn        1 760      0.174000
     36 H171        0.1570   -0.2860    2.4970 h1        1 760      0.086000
     37 H172        1.2950   -0.5760    1.4230 h1        1 760      0.086000
     38 H19         0.0230    2.1310    3.4150 ha        1 760      0.132000
     39 H20         1.3080    3.9520    4.2610 ha        1 760      0.132000
     40 H21         3.5720    4.1300    3.6660 ha        1 760      0.133500
     41 H22         4.5390    2.5420    2.2640 ha        1 760      0.133500
     42 H23         3.2830    0.7530    1.4240 ha        1 760      0.145000
@<TRIPOS>BOND
     1    1    2 1   
     2    1   11 1   
     3    1   23 1   
     4    1   24 1   
     5    2    3 1   
     6    2   25 1   
     7    2   26 1   
     8    3    4 1   
     9    3   27 1   
    10    3   28 1   
    11    4   12 1   
    12    4   29 1   
    13    4   30 1   
    14    5   13 1   
    15    5   15 1   
    16    6   13 1   
    17    6   31 1   
    18    7    8 1   
    19    7   32 1   
    20    8   33 1   
    21    9   14 1   
    22    9   34 1   
    23   10   14 1   
    24   11   12 1   
    25   15   16 1   
    26   15   35 1   
    27   16   17 1   
    28   16   36 1   
    29   16   37 1   
    30   17   18 1   
    31   17   22 1   
    32   18   19 1   
    33   18   38 1   
    34   19   39 1   
    35   20   21 1   
    36   20   40 1   
    37   21   41 1   
    38   22   42 1   
@<TRIPOS>SUBSTRUCTURE
     1 760         1 TEMP              0 ****  ****    0 ROOT
