@<TRIPOS>MOLECULE
760
   43    46     1     0     0
SMALL
bcc


@<TRIPOS>ATOM
      1 C1         -0.1630   -0.1610    0.0090 c3        1 760     -0.140700
      2 C2          1.3390   -0.1730   -0.1520 c3        1 760     -0.086400
      3 C3          2.0050   -0.1470    1.2020 c3        1 760     -0.078400
      4 C4          1.6770    1.1270    1.9540 c3        1 760     -0.053100
      5 C5         -0.2120    2.6670    2.5570 ca        1 760     -0.026400
      6 C6         -2.1310    4.2030    3.1430 ca        1 760     -0.168000
      7 C7         -3.4450    4.5610    2.9570 ca        1 760     -0.070000
      8 C8         -4.2580    3.8640    2.0340 ca        1 760     -0.111000
      9 C9         -3.7470    2.8210    1.3040 ca        1 760     -0.135300
     10 N10        -1.8950    1.3820    0.7140 nb        1 760     -0.613000
     11 C11        -0.6370    0.9870    0.8620 ca        1 760      0.449600
     12 C12         0.2730    1.5990    1.8070 ca        1 760     -0.120600
     13 C13        -1.5660    3.1230    2.4170 ca        1 760     -0.135300
     14 C14        -2.3800    2.4210    1.4720 ca        1 760      0.412600
     15 N15         0.6540    3.3540    3.5190 n4        1 760     -0.638400
     16 C17         1.2590    4.6090    2.9440 c3        1 760      0.176100
     17 C18         2.0310    5.3420    3.9840 ca        1 760     -0.192300
     18 C19         3.4270    5.2610    4.0140 ca        1 760     -0.101500
     19 C20         4.1440    5.9840    4.9660 ca        1 760     -0.117500
     20 C21         3.4710    6.7850    5.8900 ca        1 760     -0.078000
     21 C22         2.0770    6.8670    5.8610 ca        1 760     -0.117500
     22 C23         1.3560    6.1490    4.9100 ca        1 760     -0.101500
     23 H12        -0.6490   -0.1170   -1.0050 hc        1 760      0.087700
     24 H11        -0.5040   -1.1160    0.4980 hc        1 760      0.087700
     25 H22A        1.6710    0.7060   -0.7640 hc        1 760      0.065700
     26 H21A        1.6410   -1.1010   -0.7070 hc        1 760      0.065700
     27 H32         1.6700   -1.0360    1.8010 hc        1 760      0.065200
     28 H31         3.1180   -0.2240    1.0860 hc        1 760      0.065200
     29 H42         2.3590    1.9460    1.5900 hc        1 760      0.052700
     30 H41         1.9100    0.9420    3.0400 hc        1 760      0.052700
     31 H6         -1.5310    4.7810    3.8620 ha        1 760      0.117000
     32 H7         -3.8810    5.4000    3.5260 ha        1 760      0.158000
     33 H8         -5.3100    4.1710    1.9070 ha        1 760      0.165000
     34 H9         -4.3750    2.2750    0.5780 ha        1 760      0.177000
     35 H15         0.1000    3.6030    4.3500 hn        1 760      0.453800
     36 H171        1.9140    4.3030    2.0790 hx        1 760      0.111700
     37 H172        0.4090    5.2400    2.5490 hx        1 760      0.111700
     38 H19         3.9650    4.6420    3.2780 ha        1 760      0.136500
     39 H20         5.2450    5.9270    4.9840 ha        1 760      0.159500
     40 H21         4.0410    7.3590    6.6390 ha        1 760      0.161000
     41 H22         1.5480    7.5070    6.5850 ha        1 760      0.159500
     42 H23         0.2590    6.2320    4.8750 ha        1 760      0.136500
     43 H152        1.4090    2.7280    3.8230 hn        1 760      0.453800
@<TRIPOS>BOND
     1    1    2 1   
     2    1   11 1   
     3    1   23 1   
     4    1   24 1   
     5    2    3 1   
     6    2   25 1   
     7    2   26 1   
     8    3    4 1   
     9    3   27 1   
    10    3   28 1   
    11    4   12 1   
    12    4   29 1   
    13    4   30 1   
    14    5   12 ar  
    15    5   13 ar  
    16    5   15 1   
    17    6    7 ar  
    18    6   13 ar  
    19    6   31 1   
    20    7    8 ar  
    21    7   32 1   
    22    8    9 ar  
    23    8   33 1   
    24    9   14 ar  
    25    9   34 1   
    26   10   11 ar  
    27   10   14 ar  
    28   11   12 ar  
    29   13   14 ar  
    30   15   16 1   
    31   15   35 1   
    32   15   43 1   
    33   16   17 1   
    34   16   36 1   
    35   16   37 1   
    36   17   18 ar  
    37   17   22 ar  
    38   18   19 ar  
    39   18   38 1   
    40   19   20 ar  
    41   19   39 1   
    42   20   21 ar  
    43   20   40 1   
    44   21   22 ar  
    45   21   41 1   
    46   22   42 1   
@<TRIPOS>SUBSTRUCTURE
     1 760         1 TEMP              0 ****  ****    0 ROOT
