@<TRIPOS>MOLECULE
760
   42    45     1     0     0
SMALL
bcc


@<TRIPOS>ATOM
      1 C1          1.9390   -0.8470    3.6170 c3        1 760     -0.132700
      2 C2          3.2970   -1.0820    2.9980 c3        1 760     -0.080400
      3 C3          3.6870    0.0940    2.1340 c3        1 760     -0.078400
      4 C4          2.7310    0.2250    0.9670 c3        1 760     -0.025100
      5 C5          0.3000    0.6030    0.4740 ca        1 760      0.149600
      6 C6         -2.1710    0.9370    0.0790 ca        1 760     -0.121000
      7 C7         -3.4650    0.8530    0.5320 ca        1 760     -0.132000
      8 C8         -3.7400    0.3440    1.8220 ca        1 760     -0.125000
      9 C9         -2.7200   -0.0810    2.6320 ca        1 760     -0.167300
     10 N10        -0.3670   -0.4580    3.0260 nb        1 760     -0.687000
     11 C11         0.9000   -0.3810    2.6270 ca        1 760      0.455600
     12 C12         1.2950    0.1530    1.3510 ca        1 760     -0.200600
     13 C13        -1.0810    0.5230    0.8910 ca        1 760     -0.176300
     14 C14        -1.3580   -0.0080    2.1870 ca        1 760      0.414600
     15 N15         0.6520    1.2160   -0.7510 nh        1 760     -0.723600
     16 C17         1.2430    0.3860   -1.7820 c3        1 760      0.222100
     17 C18         0.3450    0.0340   -2.9340 ca        1 760     -0.126300
     18 C19         0.7390    0.3370   -4.2410 ca        1 760     -0.122500
     19 C20        -0.0700   -0.0220   -5.3180 ca        1 760     -0.129000
     20 C21        -1.2790   -0.6810   -5.0960 ca        1 760     -0.125000
     21 C22        -1.6770   -0.9820   -3.7940 ca        1 760     -0.129000
     22 C23        -0.8690   -0.6250   -2.7160 ca        1 760     -0.122500
     23 H12         1.5930   -1.7910    4.1190 hc        1 760      0.065200
     24 H11         2.0250   -0.0580    4.4140 hc        1 760      0.065200
     25 H22A        3.2820   -2.0180    2.3800 hc        1 760      0.045200
     26 H21A        4.0520   -1.2300    3.8130 hc        1 760      0.045200
     27 H32         3.6750    1.0340    2.7450 hc        1 760      0.045200
     28 H31         4.7290   -0.0420    1.7440 hc        1 760      0.045200
     29 H42         2.9400    1.1960    0.4410 hc        1 760      0.054200
     30 H41         2.9470   -0.6030    0.2350 hc        1 760      0.054200
     31 H6         -1.9960    1.3230   -0.9370 ha        1 760      0.130000
     32 H7         -4.3010    1.1780   -0.1040 ha        1 760      0.133000
     33 H8         -4.7850    0.2910    2.1650 ha        1 760      0.135000
     34 H9         -2.9280   -0.4830    3.6370 ha        1 760      0.150000
     35 H15        -0.0830    1.7920   -1.1140 hn        1 760      0.392800
     36 H171        2.1340    0.9630   -2.1700 h1        1 760      0.062200
     37 H172        1.6260   -0.5770   -1.3370 h1        1 760      0.062200
     38 H19         1.6910    0.8590   -4.4220 ha        1 760      0.138000
     39 H20         0.2460    0.2170   -6.3440 ha        1 760      0.134000
     40 H21        -1.9160   -0.9650   -5.9470 ha        1 760      0.133000
     41 H22        -2.6300   -1.5030   -3.6160 ha        1 760      0.134000
     42 H23        -1.1850   -0.8640   -1.6870 ha        1 760      0.138000
@<TRIPOS>BOND
     1    1    2 1   
     2    1   11 1   
     3    1   23 1   
     4    1   24 1   
     5    2    3 1   
     6    2   25 1   
     7    2   26 1   
     8    3    4 1   
     9    3   27 1   
    10    3   28 1   
    11    4   12 1   
    12    4   29 1   
    13    4   30 1   
    14    5   12 ar  
    15    5   13 ar  
    16    5   15 1   
    17    6    7 ar  
    18    6   13 ar  
    19    6   31 1   
    20    7    8 ar  
    21    7   32 1   
    22    8    9 ar  
    23    8   33 1   
    24    9   14 ar  
    25    9   34 1   
    26   10   11 ar  
    27   10   14 ar  
    28   11   12 ar  
    29   13   14 ar  
    30   15   16 1   
    31   15   35 1   
    32   16   17 1   
    33   16   36 1   
    34   16   37 1   
    35   17   18 ar  
    36   17   22 ar  
    37   18   19 ar  
    38   18   38 1   
    39   19   20 ar  
    40   19   39 1   
    41   20   21 ar  
    42   20   40 1   
    43   21   22 ar  
    44   21   41 1   
    45   22   42 1   
@<TRIPOS>SUBSTRUCTURE
     1 760         1 TEMP              0 ****  ****    0 ROOT
