@<TRIPOS>MOLECULE
761
   27    28     1     0     0
SMALL
bcc


@<TRIPOS>ATOM
      1 C1          0.2610    0.3240   -0.0950 ca        1 761     -0.146000
      2 C2          1.6220    0.1790    0.0040 ca        1 761     -0.104000
      3 C3          2.2410    0.0570    1.2800 ca        1 761     -0.043000
      4 C4          1.4370    0.0870    2.4480 ca        1 761     -0.033000
      5 C5          0.0280    0.2380    2.3120 ca        1 761     -0.117000
      6 C6         -0.5440    0.3530    1.0710 ca        1 761     -0.135000
      7 C11         3.6440   -0.0920    1.4060 ca        1 761     -0.117000
      8 C12         4.2230   -0.2120    2.6600 ca        1 761      0.027600
      9 C13         3.4240   -0.1810    3.8470 ca        1 761     -0.135600
     10 C14         2.0590   -0.0330    3.7150 ca        1 761     -0.091000
     11 C17         3.9940   -0.3040    5.2580 c         1 761      0.912200
     12 O18         3.2030   -0.1430    6.2200 o         1 761     -0.809800
     13 O19         5.2310   -0.5620    5.4000 o         1 761     -0.809800
     14 N20         5.6720   -0.3620    2.7820 n4        1 761     -0.574200
     15 C21         6.3310   -0.9930    1.5720 c         1 761      0.399100
     16 O22         6.4610   -2.2060    1.5890 o         1 761     -0.489100
     17 C23         6.8260    0.0640    0.4860 c         1 761      0.908600
     18 O24         7.6360    0.8940    0.9400 o         1 761     -0.731300
     19 O25         6.3090   -0.0780   -0.6340 o         1 761     -0.731300
     20 H11        -0.2220    0.4190   -1.0790 ha        1 761      0.123000
     21 H21         2.2600    0.1560   -0.8930 ha        1 761      0.141000
     22 H51        -0.5850    0.2600    3.2250 ha        1 761      0.132000
     23 H61        -1.6320    0.4700    0.9630 ha        1 761      0.121000
     24 H111        4.2530   -0.1070    0.4790 ha        1 761      0.178000
     25 H141        1.4450   -0.0050    4.6330 ha        1 761      0.170000
     26 H20         6.0820    0.5720    2.9020 hn        1 761      0.476300
     27 H202        5.8610   -0.9060    3.6600 hn        1 761      0.476300
@<TRIPOS>BOND
     1    1    2 ar  
     2    1    6 ar  
     3    1   20 1   
     4    2    3 ar  
     5    2   21 1   
     6    3    4 ar  
     7    3    7 ar  
     8    4    5 ar  
     9    4   10 ar  
    10    5    6 ar  
    11    5   22 1   
    12    6   23 1   
    13    7    8 ar  
    14    7   24 1   
    15    8    9 ar  
    16    8   14 1   
    17    9   10 ar  
    18    9   11 1   
    19   10   25 1   
    20   11   12 1   
    21   11   13 1   
    22   14   15 1   
    23   14   26 1   
    24   14   27 1   
    25   15   16 2   
    26   15   17 1   
    27   17   18 1   
    28   17   19 1   
@<TRIPOS>SUBSTRUCTURE
     1 761         1 TEMP              0 ****  ****    0 ROOT
