@<TRIPOS>MOLECULE
761
   26    27     1     0     0
SMALL
bcc


@<TRIPOS>ATOM
      1 C1         -0.1510    0.1030    0.0340 ca        1 761     -0.159000
      2 C2          1.2210    0.0420   -0.0040 ca        1 761     -0.130000
      3 C3          1.9830   -0.0090    1.1970 ca        1 761      0.002000
      4 C4          1.2930    0.0060    2.4390 ca        1 761     -0.091000
      5 C5         -0.1210    0.0680    2.4490 ca        1 761     -0.097000
      6 C6         -0.8330    0.1160    1.2720 ca        1 761     -0.197000
      7 C11         3.3920   -0.0710    1.1780 ca        1 761     -0.249000
      8 C12         4.1500   -0.1150    2.3560 ca        1 761      0.147600
      9 C13         3.4370   -0.0970    3.6200 ca        1 761     -0.153600
     10 C14         2.0650   -0.0450    3.6290 ca        1 761     -0.105000
     11 C17         4.1210   -0.1290    4.9820 c         1 761      0.909200
     12 O18         5.2620    0.3960    5.1230 o         1 761     -0.834800
     13 O19         3.4810   -0.6550    5.9400 o         1 761     -0.834800
     14 N20         5.5380   -0.1720    2.3470 ns        1 761     -0.453100
     15 C21         6.3840   -0.3370    1.2490 c         1 761      0.549100
     16 O22         5.9560   -0.4940    0.0870 o         1 761     -0.666100
     17 C23         7.9230   -0.3250    1.5310 c         1 761      0.890600
     18 O24         8.5040    0.7830    1.4200 o         1 761     -0.807800
     19 O25         8.4560   -1.4300    1.7990 o         1 761     -0.807800
     20 H11        -0.7350    0.1420   -0.8960 ha        1 761      0.093000
     21 H21         1.7590    0.0300   -0.9640 ha        1 761      0.117000
     22 H51        -0.6390    0.0750    3.4200 ha        1 761      0.109000
     23 H61        -1.9290    0.1640    1.2800 ha        1 761      0.094000
     24 H111        3.8880   -0.0860    0.1940 ha        1 761      0.163000
     25 H141        1.5460   -0.0600    4.6020 ha        1 761      0.141000
     26 H20         5.9810   -0.0660    3.2470 hn        1 761      0.371500
@<TRIPOS>BOND
     1    1    2 ar  
     2    1    6 ar  
     3    1   20 1   
     4    2    3 ar  
     5    2   21 1   
     6    3    4 ar  
     7    3    7 ar  
     8    4    5 ar  
     9    4   10 ar  
    10    5    6 ar  
    11    5   22 1   
    12    6   23 1   
    13    7    8 ar  
    14    7   24 1   
    15    8    9 ar  
    16    8   14 1   
    17    9   10 ar  
    18    9   11 1   
    19   10   25 1   
    20   11   12 1   
    21   11   13 1   
    22   14   15 1   
    23   14   26 1   
    24   15   16 2   
    25   15   17 1   
    26   17   18 1   
    27   17   19 1   
@<TRIPOS>SUBSTRUCTURE
     1 761         1 TEMP              0 ****  ****    0 ROOT
