@<TRIPOS>MOLECULE
761
   26    23     1     0     0
SMALL
bcc


@<TRIPOS>ATOM
      1 C1         -3.1530    0.4100   -2.2730 c1        1 761     -0.120500
      2 C2         -1.7650    0.4150   -2.2260 c1        1 761     -0.072500
      3 C3         -1.1010    0.2700   -0.9940 cg        1 761     -0.031300
      4 C4         -1.8270    0.1240    0.1650 cg        1 761     -0.124300
      5 C5         -3.2340    0.1190    0.1160 c1        1 761     -0.039500
      6 C6         -3.8880    0.2620   -1.1000 c1        1 761     -0.120500
      7 C11         0.3060    0.2750   -0.9460 ce        1 761     -0.278800
      8 C12         0.9600    0.1310    0.2710 c1        1 761      0.218100
      9 C13         0.2240   -0.0170    1.4430 c1        1 761     -0.069900
     10 C14        -1.1630   -0.0220    1.3970 ce        1 761     -0.134800
     11 C17         0.7690    0.1080    2.8490 c         1 761      0.888600
     12 O18         1.1530    1.2280    3.2770 o         1 761     -0.834800
     13 O19         0.8260   -0.9050    3.5950 o         1 761     -0.834800
     14 N20         2.3670    0.2430    0.1340 n         1 761     -0.460500
     15 C21         3.1720   -0.9250    0.0990 c         1 761      0.549100
     16 O22         2.6560   -2.0210    0.1870 o         1 761     -0.666100
     17 C23         4.6760   -0.8040   -0.0110 c         1 761      0.890600
     18 O24         5.3920   -0.8910    1.0220 o         1 761     -0.807800
     19 O25         5.2120   -0.6150   -1.1340 o         1 761     -0.807800
     20 H11        -3.6130    0.5110   -3.1270 ha        1 761      0.036000
     21 H21        -1.2500    0.5120   -3.0500 ha        1 761      0.059500
     22 H51        -3.7500    0.0150    0.9390 ha        1 761      0.051500
     23 H61        -4.8640    0.2680   -1.1320 ha        1 761      0.036000
     24 H111        0.8220    0.3690   -1.7690 ha        1 761      0.163000
     25 H141       -1.6790   -0.1260    2.2200 ha        1 761      0.141000
     26 H20         2.7530    1.0650    0.0480 hn        1 761      0.371500
@<TRIPOS>BOND
     1    1    6 3   
     2    1   20 1   
     3    2    3 3   
     4    2   21 1   
     5    3    7 1   
     6    4    5 3   
     7    4   10 1   
     8    5   22 1   
     9    6   23 1   
    10    7    8 2   
    11    7   24 1   
    12    8   14 2   
    13    9   10 2   
    14    9   11 2   
    15   10   25 1   
    16   11   12 1   
    17   11   13 1   
    18   14   15 1   
    19   14   26 1   
    20   15   16 2   
    21   15   17 1   
    22   17   18 1   
    23   17   19 1   
@<TRIPOS>SUBSTRUCTURE
     1 761         1 TEMP              0 ****  ****    0 ROOT
