@<TRIPOS>MOLECULE
761
   26    27     1     0     0
SMALL
bcc


@<TRIPOS>ATOM
      1 C1          2.1980    0.1480   -4.1140 ca        1 761     -0.159000
      2 C2          2.2520    0.1730   -2.7410 ca        1 761     -0.130000
      3 C3          1.0620    0.0950   -1.9630 ca        1 761      0.002000
      4 C4         -0.1840   -0.0100   -2.6360 ca        1 761     -0.091000
      5 C5         -0.2100   -0.0350   -4.0520 ca        1 761     -0.097000
      6 C6          0.9550    0.0430   -4.7800 ca        1 761     -0.197000
      7 C11         1.0980    0.1200   -0.5530 ca        1 761     -0.249000
      8 C12        -0.0690    0.0500    0.2220 ca        1 761      0.147600
      9 C13        -1.3380   -0.0550   -0.4760 ca        1 761     -0.153600
     10 C14        -1.3620   -0.0870   -1.8490 ca        1 761     -0.105000
     11 C17        -2.6890   -0.1290    0.2260 c         1 761      0.909200
     12 O18        -2.8520    0.4550    1.3340 o         1 761     -0.834800
     13 O19        -3.6180   -0.7520   -0.3690 o         1 761     -0.834800
     14 N20        -0.0440    0.0790    1.6100 n         1 761     -0.453100
     15 C21         1.0690    0.0330    2.4500 c         1 761      0.549100
     16 O22         2.2360   -0.0780    2.0190 o         1 761     -0.666100
     17 C23         0.8000    0.1220    3.9890 c         1 761      0.890600
     18 O24         0.8480    1.2680    4.5000 o         1 761     -0.807800
     19 O25         0.6070   -0.9620    4.5910 o         1 761     -0.807800
     20 H11         3.1180    0.2090   -4.7110 ha        1 761      0.093000
     21 H21         3.2140    0.2540   -2.2160 ha        1 761      0.117000
     22 H51        -1.1840   -0.1200   -4.5570 ha        1 761      0.109000
     23 H61         0.9340    0.0230   -5.8770 ha        1 761      0.094000
     24 H111        2.0850    0.1970   -0.0700 ha        1 761      0.163000
     25 H141       -2.3370   -0.1940   -2.3530 ha        1 761      0.141000
     26 H20        -0.9450    0.1550    2.0570 hn        1 761      0.371500
@<TRIPOS>BOND
     1    1    2 ar  
     2    1    6 ar  
     3    1   20 1   
     4    2    3 ar  
     5    2   21 1   
     6    3    4 ar  
     7    3    7 ar  
     8    4    5 ar  
     9    4   10 ar  
    10    5    6 ar  
    11    5   22 1   
    12    6   23 1   
    13    7    8 ar  
    14    7   24 1   
    15    8    9 ar  
    16    8   14 1   
    17    9   10 ar  
    18    9   11 1   
    19   10   25 1   
    20   11   12 1   
    21   11   13 1   
    22   14   15 1   
    23   14   26 1   
    24   15   16 2   
    25   15   17 1   
    26   17   18 1   
    27   17   19 1   
@<TRIPOS>SUBSTRUCTURE
     1 761         1 TEMP              0 ****  ****    0 ROOT
