@<TRIPOS>MOLECULE
762
   41    30     1     0     0
SMALL
bcc


@<TRIPOS>ATOM
      1 C1         -0.9100   -0.9100   -4.5660 c1        1 762     -0.204000
      2 C2         -1.3620   -2.0770   -3.9700 c1        1 762     -0.050000
      3 CL2        -1.8180   -3.6540   -4.5580 cl        1 762     -0.038000
      4 C3         -1.0900   -2.3220   -2.6330 c1        1 762     -0.132000
      5 C4         -0.3560   -1.3860   -1.8810 c1        1 762      0.004500
      6 C5          0.0890   -0.2370   -2.4680 c1        1 762      0.004500
      7 C6         -0.1870    0.0120   -3.8260 c1        1 762     -0.106000
      8 C7         -1.0500   -1.1690   -6.0500 c2        1 762      0.360000
      9 N1         -2.2610   -0.8490   -6.7150 n3        1 762     -0.328000
     10 N2         -0.0520   -1.6870   -6.7200 n2        1 762     -0.335000
     11 N3          0.0430   -1.3740   -0.5850 n1        1 762     -0.228500
     12 N4          0.7600    0.4780   -1.5310 n1        1 762     -0.228500
     13 C8          0.7320   -0.2230   -0.3670 c2        1 762      0.206000
     14 C1'         1.2140   -0.1140    0.9280 c1        1 762     -0.307000
     15 C2'         2.3340   -0.8350    1.3130 c1        1 762     -0.138500
     16 C3'         2.7810   -0.7730    2.6240 c1        1 762     -0.138500
     17 C4'         2.1090    0.0100    3.5490 c1        1 762     -0.068500
     18 C5'         0.9890    0.7300    3.1640 c1        1 762     -0.088000
     19 C6'         0.5420    0.6680    1.8540 c1        1 762      0.318000
     20 O6'        -0.5630    1.4380    1.4520 o         1 762     -0.471000
     21 C1B         0.3190    1.5150    4.0890 c1        1 762     -0.088000
     22 C2B         0.7000    2.8320    4.2860 c1        1 762     -0.138500
     23 C3B         0.0600    3.6040    5.2440 c1        1 762     -0.138500
     24 C4B        -0.9620    3.0570    6.0040 c1        1 762     -0.138500
     25 C5B        -1.3430    1.7390    5.8070 c1        1 762     -0.138500
     26 C6B        -0.7030    0.9680    4.8500 c1        1 762     -0.068500
     27 HC3        -1.4090   -3.1440   -2.2130 ha        1 762      0.165000
     28 HC6         0.1310    0.8330   -4.2460 ha        1 762      0.144000
     29 HH11       -2.8770   -0.3080   -6.3080 hn        1 762      0.265500
     30 HH12       -2.4320   -1.1950   -7.5440 hn        1 762      0.265500
     31 HH21        0.7300   -1.8940   -6.2910 DU        1 762      0.296500
     32 HH22       -0.1370   -1.8430   -7.6180 hn        1 762      0.248000
     33 HN3        -0.1230   -2.0240    0.0330 DU        1 762      0.296500
     34 HC2'        2.8070   -1.3860    0.6620 ha        1 762      0.121667
     35 HC3'        3.5700   -1.2810    2.8950 ha        1 762      0.121667
     36 HC4'        2.4240    0.0540    4.4720 ha        1 762      0.134500
     37 H2B         1.4200    3.2180    3.7510 ha        1 762      0.121667
     38 H3B         0.3290    4.5320    5.3830 ha        1 762      0.121667
     39 H4B        -1.4120    3.6000    6.6790 ha        1 762      0.121667
     40 H5B        -2.0630    1.3540    6.3420 ha        1 762      0.121667
     41 H6B        -0.9720    0.0400    4.7110 ha        1 762      0.134500
@<TRIPOS>BOND
     1    1    7 1   
     2    1    8 1   
     3    2    3 1   
     4    2    4 1   
     5    4   27 1   
     6    5    6 1   
     7    7   28 1   
     8    8    9 1   
     9    8   10 1   
    10    9   29 1   
    11    9   30 1   
    12   10   32 1   
    13   11   13 1   
    14   12   13 1   
    15   13   14 1   
    16   14   19 1   
    17   15   16 1   
    18   15   34 1   
    19   16   35 1   
    20   17   18 1   
    21   17   36 1   
    22   19   20 1   
    23   21   26 1   
    24   22   23 1   
    25   22   37 1   
    26   23   38 1   
    27   24   25 1   
    28   24   39 1   
    29   25   40 1   
    30   26   41 1   
@<TRIPOS>SUBSTRUCTURE
     1 762         1 TEMP              0 ****  ****    0 ROOT
