@<TRIPOS>MOLECULE
762
   41    44     1     0     0
SMALL
bcc


@<TRIPOS>ATOM
      1 C1         -4.2000    0.7020    0.2770 ca        1 762     -0.276900
      2 C2         -4.4920   -0.6270   -0.0860 ca        1 762      0.019400
      3 CL2        -6.1010   -1.1230   -0.3790 cl        1 762     -0.117400
      4 C3         -3.4830   -1.5740   -0.2720 ca        1 762     -0.134000
      5 C4         -2.1660   -1.1640   -0.0870 ca        1 762      0.011000
      6 C5         -1.8360    0.2250    0.2970 ca        1 762     -0.006000
      7 C6         -2.8750    1.1350    0.4690 ca        1 762     -0.106000
      8 C7         -5.2640    1.7100    0.4610 ce        1 762      0.536400
      9 N1         -6.3310    1.4260    1.2470 nh        1 762     -0.483600
     10 N2         -5.1160    2.9140   -0.1460 nh        1 762     -0.467700
     11 N3         -0.9520   -1.8120   -0.1860 na        1 762     -0.281600
     12 N4         -0.4660    0.3740    0.4280 nc        1 762     -0.308600
     13 C8          0.0830   -0.8530    0.1180 cc        1 762      0.329500
     14 C1'         1.4560   -1.2160    0.0840 cd        1 762     -0.340200
     15 C2'         1.8450   -2.5660    0.2690 cd        1 762     -0.034000
     16 C3'         3.1600   -2.9370    0.3100 cc        1 762     -0.254000
     17 C4'         4.1730   -1.9490    0.1880 cc        1 762     -0.050000
     18 C5'         3.8710   -0.6300   -0.0090 cd        1 762     -0.177400
     19 C6'         2.4690   -0.1890   -0.1420 c         1 762      0.603500
     20 O6'         2.1830    0.9820   -0.4730 o         1 762     -0.627100
     21 C1B         4.9470    0.3560   -0.0860 ca        1 762     -0.010800
     22 C2B         6.0560    0.2480    0.7690 ca        1 762     -0.118500
     23 C3B         7.1050    1.1610    0.6900 ca        1 762     -0.141500
     24 C4B         7.0640    2.1970   -0.2410 ca        1 762     -0.145000
     25 C5B         5.9630    2.3190   -1.0890 ca        1 762     -0.141500
     26 C6B         4.9110    1.4080   -1.0130 ca        1 762     -0.118500
     27 HC3        -3.7280   -2.6040   -0.5660 ha        1 762      0.158000
     28 HC6        -2.6450    2.1630    0.7820 ha        1 762      0.150000
     29 HH11       -7.0970    2.0460    1.3650 hn        1 762      0.316700
     30 HH12       -6.3920    0.5130    1.6480 hn        1 762      0.316700
     31 HH21       -4.2910    3.0670   -0.6910 hn        1 762      0.316700
     32 HH22       -5.7480    3.6700   -0.0200 hn        1 762      0.316700
     33 HN3        -0.8060   -2.7500   -0.4480 hn        1 762      0.310700
     34 HC2'        1.0780   -3.3430    0.4170 ha        1 762      0.087000
     35 HC3'        3.4530   -3.9840    0.4560 ha        1 762      0.116000
     36 HC4'        5.2230   -2.2760    0.2580 ha        1 762      0.115000
     37 H2B         6.0910   -0.5600    1.5140 ha        1 762      0.142000
     38 H3B         7.9660    1.0640    1.3670 ha        1 762      0.119000
     39 H4B         7.8920    2.9170   -0.3040 ha        1 762      0.118000
     40 H5B         5.9210    3.1390   -1.8200 ha        1 762      0.119000
     41 H6B         4.0310    1.5200   -1.6670 ha        1 762      0.142000
@<TRIPOS>BOND
     1    1    2 ar  
     2    1    7 ar  
     3    1    8 1   
     4    2    3 1   
     5    2    4 ar  
     6    4    5 ar  
     7    4   27 1   
     8    5    6 ar  
     9    5   11 2   
    10    6    7 ar  
    11    6   12 2   
    12    7   28 1   
    13    8    9 2   
    14    8   10 1   
    15    9   29 1   
    16    9   30 1   
    17   10   31 1   
    18   10   32 1   
    19   11   13 1   
    20   11   33 1   
    21   12   13 1   
    22   13   14 2   
    23   14   15 1   
    24   14   19 1   
    25   15   16 2   
    26   15   34 1   
    27   16   17 1   
    28   16   35 1   
    29   17   18 2   
    30   17   36 1   
    31   18   19 1   
    32   18   21 1   
    33   19   20 2   
    34   21   22 ar  
    35   21   26 ar  
    36   22   23 ar  
    37   22   37 1   
    38   23   24 ar  
    39   23   38 1   
    40   24   25 ar  
    41   24   39 1   
    42   25   26 ar  
    43   25   40 1   
    44   26   41 1   
@<TRIPOS>SUBSTRUCTURE
     1 762         1 TEMP              0 ****  ****    0 ROOT
