@<TRIPOS>MOLECULE
768
   59    62     1     0     0
SMALL
bcc


@<TRIPOS>ATOM
      1 O1          0.6270   -2.6630    1.5950 oh        1 768     -0.598800
      2 C16         0.8120   -1.9020    0.4120 c3        1 768      0.111100
      3 C17         1.7280   -0.7030    0.6730 c3        1 768      0.084400
      4 O2          1.0400    0.0730    1.6630 os        1 768     -0.329900
      5 C18         1.7160    1.1710    2.1530 ca        1 768      0.137100
      6 C19         2.9050    1.6630    1.5960 ca        1 768     -0.185000
      7 C20         3.5140    2.7920    2.1360 ca        1 768     -0.087000
      8 C21         2.9380    3.4350    3.2340 ca        1 768     -0.009600
      9 Cl1         3.6800    4.8130    3.8940 cl        1 768     -0.085400
     10 C22         1.7520    2.9560    3.7970 ca        1 768     -0.093000
     11 C23         1.1360    1.8220    3.2640 ca        1 768     -0.005600
     12 Cl2        -0.3020    1.2690    3.9780 cl        1 768     -0.068400
     13 C15         1.4460   -2.8820   -0.5990 c3        1 768      0.013300
     14 N3          1.4640   -2.4830   -1.9800 na        1 768     -0.188300
     15 C14         2.4240   -1.4530   -2.4190 cc        1 768      0.514300
     16 N4          3.6820   -1.3530   -2.1190 n2        1 768     -0.834100
     17 C13         0.2350   -2.1710   -2.6340 ca        1 768     -0.067200
     18 C12        -0.9950   -2.8130   -2.5790 ca        1 768     -0.116000
     19 C11        -2.0240   -2.3390   -3.4050 ca        1 768     -0.130000
     20 C10        -1.8280   -1.2570   -4.2560 ca        1 768     -0.125000
     21 C9         -0.5950   -0.5940   -4.3250 ca        1 768     -0.120000
     22 C8          0.4370   -1.0470   -3.5140 ca        1 768     -0.058200
     23 N2          1.7460   -0.5140   -3.3140 na        1 768     -0.143300
     24 C7          2.4740    0.0450   -4.4280 c3        1 768      0.020300
     25 C6          2.9020   -0.9700   -5.5140 c3        1 768      0.137800
     26 N1          3.4520   -0.3090   -6.6900 n3        1 768     -0.729600
     27 C5          3.3730   -1.1600   -7.8720 c3        1 768      0.169300
     28 C4          3.9450   -0.5050   -9.1270 c3        1 768     -0.077400
     29 C3          5.3550   -0.0110   -8.8910 c3        1 768     -0.078400
     30 C2          5.3980    0.8970   -7.6820 c3        1 768     -0.077400
     31 C1          4.7940    0.2120   -6.4580 c3        1 768      0.169300
     32 HO1         0.2850   -2.0550    2.2640 ho        1 768      0.427000
     33 H16        -0.1870   -1.5360    0.0410 h1        1 768      0.064700
     34 H17         1.8600   -0.0940   -0.2600 h1        1 768      0.061700
     35 H17A        2.7200   -1.0340    1.0740 h1        1 768      0.061700
     36 H19         3.3660    1.1690    0.7280 ha        1 768      0.154000
     37 H20         4.4480    3.1730    1.6940 ha        1 768      0.154000
     38 H22         1.3010    3.4690    4.6630 ha        1 768      0.163000
     39 H15         2.5000   -3.1070   -0.2720 h1        1 768      0.078700
     40 H15A        0.8550   -3.8430   -0.5410 h1        1 768      0.078700
     41 HN4         4.0180   -2.0120   -1.4500 hn        1 768      0.403400
     42 H12        -1.1630   -3.6690   -1.9110 ha        1 768      0.145000
     43 H11        -3.0040   -2.8390   -3.3720 ha        1 768      0.137000
     44 H10        -2.6550   -0.9070   -4.8930 ha        1 768      0.137000
     45 H9         -0.4570    0.2600   -5.0030 ha        1 768      0.148000
     46 H7          3.3860    0.5550   -4.0060 h1        1 768      0.077700
     47 H7A         1.8060    0.8280   -4.8870 h1        1 768      0.077700
     48 H6          3.6350   -1.6980   -5.0580 h1        1 768      0.043700
     49 H6A         1.9920   -1.5560   -5.8310 h1        1 768      0.043700
     50 H5          3.9060   -2.1430   -7.7070 h1        1 768      0.031450
     51 H5A         2.2840   -1.3900   -8.0510 h1        1 768      0.031450
     52 H4          3.2920    0.3530   -9.4360 hc        1 768      0.046950
     53 H4A         3.9330   -1.2600   -9.9540 hc        1 768      0.046950
     54 H3          6.0390   -0.8850   -8.7300 hc        1 768      0.040200
     55 H3A         5.7210    0.5410   -9.7950 hc        1 768      0.040200
     56 H2          4.8370    1.8430   -7.9010 hc        1 768      0.046950
     57 H2A         6.4570    1.1750   -7.4440 hc        1 768      0.046950
     58 H1          5.5000   -0.6050   -6.1220 h1        1 768      0.031450
     59 H1A         4.7240    0.9640   -5.6220 h1        1 768      0.031450
@<TRIPOS>BOND
     1    1    2 1   
     2    1   32 1   
     3    2    3 1   
     4    2   13 1   
     5    2   33 1   
     6    3    4 1   
     7    3   34 1   
     8    3   35 1   
     9    4    5 1   
    10    5    6 ar  
    11    5   11 ar  
    12    6    7 ar  
    13    6   36 1   
    14    7    8 ar  
    15    7   37 1   
    16    8    9 1   
    17    8   10 ar  
    18   10   11 ar  
    19   10   38 1   
    20   11   12 1   
    21   13   14 1   
    22   13   39 1   
    23   13   40 1   
    24   14   15 1   
    25   14   17 1   
    26   15   16 2   
    27   15   23 1   
    28   16   41 1   
    29   17   18 ar  
    30   17   22 ar  
    31   18   19 ar  
    32   18   42 1   
    33   19   20 ar  
    34   19   43 1   
    35   20   21 ar  
    36   20   44 1   
    37   21   22 ar  
    38   21   45 1   
    39   22   23 1   
    40   23   24 1   
    41   24   25 1   
    42   24   46 1   
    43   24   47 1   
    44   25   26 1   
    45   25   48 1   
    46   25   49 1   
    47   26   27 1   
    48   26   31 1   
    49   27   28 1   
    50   27   50 1   
    51   27   51 1   
    52   28   29 1   
    53   28   52 1   
    54   28   53 1   
    55   29   30 1   
    56   29   54 1   
    57   29   55 1   
    58   30   31 1   
    59   30   56 1   
    60   30   57 1   
    61   31   58 1   
    62   31   59 1   
@<TRIPOS>SUBSTRUCTURE
     1 768         1 TEMP              0 ****  ****    0 ROOT
