@<TRIPOS>MOLECULE
768
   59    62     1     0     0
SMALL
bcc


@<TRIPOS>ATOM
      1 O1          0.6070   -2.6610    1.5870 oh        1 768     -0.598800
      2 C16         0.7970   -1.9010    0.4040 c3        1 768      0.111100
      3 C17         1.7070   -0.6980    0.6700 c3        1 768      0.084400
      4 O2          1.0090    0.0760    1.6550 os        1 768     -0.329900
      5 C18         1.6810    1.1750    2.1500 ca        1 768      0.137100
      6 C19         2.8710    1.6710    1.6010 ca        1 768     -0.185000
      7 C20         3.4740    2.8010    2.1470 ca        1 768     -0.087000
      8 C21         2.8900    3.4400    3.2430 ca        1 768     -0.009600
      9 CL1         3.6260    4.8180    3.9100 cl        1 768     -0.085400
     10 C22         1.7020    2.9560    3.8000 ca        1 768     -0.093000
     11 C23         1.0930    1.8220    3.2600 ca        1 768     -0.005600
     12 CL2        -0.3470    1.2630    3.9660 cl        1 768     -0.068400
     13 C15         1.4420   -2.8800   -0.6000 c3        1 768      0.013300
     14 N3          1.4680   -2.4840   -1.9820 na        1 768     -0.188300
     15 C14         2.4250   -1.4500   -2.4170 cc        1 768      0.514300
     16 N4          3.6810   -1.3430   -2.1090 n2        1 768     -0.834100
     17 C13         0.2410   -2.1790   -2.6450 ca        1 768     -0.067200
     18 C12        -0.9860   -2.8270   -2.5980 ca        1 768     -0.116000
     19 C11        -2.0110   -2.3600   -3.4310 ca        1 768     -0.130000
     20 C10        -1.8150   -1.2790   -4.2830 ca        1 768     -0.125000
     21 C9         -0.5850   -0.6100   -4.3450 ca        1 768     -0.120000
     22 C8          0.4440   -1.0560   -3.5260 ca        1 768     -0.058200
     23 N2          1.7490   -0.5160   -3.3180 na        1 768     -0.143300
     24 C7          2.4820    0.0440   -4.4280 c3        1 768      0.020300
     25 C6          2.9220   -0.9700   -5.5100 c3        1 768      0.137800
     26 N1          3.4740   -0.3080   -6.6840 n3        1 768     -0.729600
     27 C5          3.4080   -1.1640   -7.8640 c3        1 768      0.169300
     28 C4          3.9830   -0.5080   -9.1170 c3        1 768     -0.077400
     29 C3          5.3890   -0.0030   -8.8740 c3        1 768     -0.078400
     30 C2          5.4170    0.9090   -7.6680 c3        1 768     -0.077400
     31 C1          4.8110    0.2230   -6.4450 c3        1 768      0.169300
     32 HO1         0.2580   -2.0530    2.2530 ho        1 768      0.427000
     33 H16        -0.2010   -1.5390    0.0250 h1        1 768      0.064700
     34 H17         2.6980   -1.0250    1.0780 h1        1 768      0.061700
     35 H17A        1.8430   -0.0900   -0.2620 h1        1 768      0.061700
     36 H19         3.3370    1.1810    0.7330 ha        1 768      0.154000
     37 H20         4.4080    3.1860    1.7090 ha        1 768      0.154000
     38 H22         1.2460    3.4660    4.6640 ha        1 768      0.163000
     39 H15         2.4940   -3.1000   -0.2670 h1        1 768      0.078700
     40 H15A        0.8550   -3.8440   -0.5440 h1        1 768      0.078700
     41 HN4         4.0150   -1.9990   -1.4360 hn        1 768      0.403400
     42 H12        -1.1540   -3.6830   -1.9290 ha        1 768      0.145000
     43 H11        -2.9890   -2.8650   -3.4040 ha        1 768      0.137000
     44 H10        -2.6390   -0.9350   -4.9270 ha        1 768      0.137000
     45 H9         -0.4460    0.2430   -5.0240 ha        1 768      0.148000
     46 H7          3.3880    0.5600   -4.0020 h1        1 768      0.077700
     47 H7A         1.8120    0.8230   -4.8930 h1        1 768      0.077700
     48 H6          3.6570   -1.6930   -5.0480 h1        1 768      0.043700
     49 H6A         2.0180   -1.5620   -5.8310 h1        1 768      0.043700
     50 H5          2.3230   -1.4020   -8.0490 h1        1 768      0.031450
     51 H5A         3.9480   -2.1420   -7.6930 h1        1 768      0.031450
     52 H4          3.9820   -1.2660   -9.9430 hc        1 768      0.046950
     53 H4A         3.3260    0.3430   -9.4330 hc        1 768      0.046950
     54 H3          6.0780   -0.8720   -8.7070 hc        1 768      0.040200
     55 H3A         5.7560    0.5490   -9.7780 hc        1 768      0.040200
     56 H2          4.8500    1.8500   -7.8940 hc        1 768      0.046950
     57 H2A         6.4720    1.1950   -7.4240 hc        1 768      0.046950
     58 H1          4.7300    0.9770   -5.6130 h1        1 768      0.031450
     59 H1A         5.5200   -0.5880   -6.1020 h1        1 768      0.031450
@<TRIPOS>BOND
     1    1    2 1   
     2    1   32 1   
     3    2    3 1   
     4    2   13 1   
     5    2   33 1   
     6    3    4 1   
     7    3   34 1   
     8    3   35 1   
     9    4    5 1   
    10    5    6 ar  
    11    5   11 ar  
    12    6    7 ar  
    13    6   36 1   
    14    7    8 ar  
    15    7   37 1   
    16    8    9 1   
    17    8   10 ar  
    18   10   11 ar  
    19   10   38 1   
    20   11   12 1   
    21   13   14 1   
    22   13   39 1   
    23   13   40 1   
    24   14   15 1   
    25   14   17 1   
    26   15   16 2   
    27   15   23 1   
    28   16   41 1   
    29   17   18 ar  
    30   17   22 ar  
    31   18   19 ar  
    32   18   42 1   
    33   19   20 ar  
    34   19   43 1   
    35   20   21 ar  
    36   20   44 1   
    37   21   22 ar  
    38   21   45 1   
    39   22   23 1   
    40   23   24 1   
    41   24   25 1   
    42   24   46 1   
    43   24   47 1   
    44   25   26 1   
    45   25   48 1   
    46   25   49 1   
    47   26   27 1   
    48   26   31 1   
    49   27   28 1   
    50   27   50 1   
    51   27   51 1   
    52   28   29 1   
    53   28   52 1   
    54   28   53 1   
    55   29   30 1   
    56   29   54 1   
    57   29   55 1   
    58   30   31 1   
    59   30   56 1   
    60   30   57 1   
    61   31   58 1   
    62   31   59 1   
@<TRIPOS>SUBSTRUCTURE
     1 768         1 TEMP              0 ****  ****    0 ROOT
