@<TRIPOS>MOLECULE
768
   59    62     1     0     0
SMALL
bcc


@<TRIPOS>ATOM
      1 O1          0.6430   -2.6770    1.5930 oh        1 768     -0.598800
      2 C16         0.8240   -1.9130    0.4110 c3        1 768      0.111100
      3 C17         1.7370   -0.7120    0.6730 c3        1 768      0.084400
      4 O2          1.0480    0.0600    1.6660 os        1 768     -0.329900
      5 C18         1.7230    1.1590    2.1570 ca        1 768      0.137100
      6 C19         2.9100    1.6540    1.6010 ca        1 768     -0.185000
      7 C20         3.5170    2.7840    2.1420 ca        1 768     -0.087000
      8 C21         2.9390    3.4230    3.2420 ca        1 768     -0.009600
      9 CL1         3.6800    4.8010    3.9040 cl        1 768     -0.085400
     10 C22         1.7560    2.9400    3.8060 ca        1 768     -0.093000
     11 C23         1.1420    1.8060    3.2710 ca        1 768     -0.005600
     12 CL2        -0.2940    1.2470    3.9850 cl        1 768     -0.068400
     13 C15         1.4590   -2.8890   -0.6020 c3        1 768      0.013300
     14 N3          1.4740   -2.4880   -1.9830 na        1 768     -0.188300
     15 C14         2.4290   -1.4540   -2.4210 cc        1 768      0.514300
     16 N4          3.6880   -1.3510   -2.1240 n2        1 768     -0.834100
     17 C13         0.2410   -2.1790   -2.6330 ca        1 768     -0.067200
     18 C12        -0.9860   -2.8250   -2.5780 ca        1 768     -0.116000
     19 C11        -2.0180   -2.3520   -3.4010 ca        1 768     -0.130000
     20 C10        -1.8280   -1.2680   -4.2500 ca        1 768     -0.125000
     21 C9         -0.5970   -0.6010   -4.3200 ca        1 768     -0.120000
     22 C8          0.4380   -1.0520   -3.5120 ca        1 768     -0.058200
     23 N2          1.7460   -0.5150   -3.3130 na        1 768     -0.143300
     24 C7          2.4700    0.0490   -4.4270 c3        1 768      0.020300
     25 C6          2.8990   -0.9620   -5.5170 c3        1 768      0.137800
     26 N1          3.4430   -0.2960   -6.6930 n3        1 768     -0.729600
     27 C5          3.3650   -1.1460   -7.8760 c3        1 768      0.169300
     28 C4          3.9310   -0.4850   -9.1310 c3        1 768     -0.077400
     29 C3          5.3390    0.0150   -8.8980 c3        1 768     -0.078400
     30 C2          5.3800    0.9210   -7.6870 c3        1 768     -0.077400
     31 C1          4.7830    0.2310   -6.4630 c3        1 768      0.169300
     32 HO1         0.3000   -2.0720    2.2640 ho        1 768      0.427000
     33 H16        -0.1770   -1.5490    0.0430 h1        1 768      0.064700
     34 H17         2.7310   -1.0410    1.0730 h1        1 768      0.061700
     35 H17A        1.8660   -0.1020   -0.2580 h1        1 768      0.061700
     36 H19         3.3700    1.1640    0.7300 ha        1 768      0.154000
     37 H20         4.4480    3.1680    1.6990 ha        1 768      0.154000
     38 H22         1.3050    3.4490    4.6730 ha        1 768      0.163000
     39 H15         2.5140   -3.1120   -0.2780 h1        1 768      0.078700
     40 H15A        0.8720   -3.8530   -0.5450 h1        1 768      0.078700
     41 HN4         4.0260   -2.0100   -1.4570 hn        1 768      0.403400
     42 H12        -1.1490   -3.6830   -1.9110 ha        1 768      0.145000
     43 H11        -2.9960   -2.8560   -3.3670 ha        1 768      0.137000
     44 H10        -2.6570   -0.9200   -4.8850 ha        1 768      0.137000
     45 H9         -0.4630    0.2550   -4.9960 ha        1 768      0.148000
     46 H7          3.3810    0.5610   -4.0060 h1        1 768      0.077700
     47 H7A         1.7980    0.8310   -4.8830 h1        1 768      0.077700
     48 H6          1.9910   -1.5510   -5.8330 h1        1 768      0.043700
     49 H6A         3.6360   -1.6880   -5.0650 h1        1 768      0.043700
     50 H5          2.2770   -1.3800   -8.0530 h1        1 768      0.031450
     51 H5A         3.9040   -2.1260   -7.7140 h1        1 768      0.031450
     52 H4          3.2730    0.3700   -9.4370 hc        1 768      0.046950
     53 H4A         3.9200   -1.2390   -9.9600 hc        1 768      0.046950
     54 H3          5.7010    0.5700   -9.8020 hc        1 768      0.040200
     55 H3A         6.0280   -0.8570   -8.7400 hc        1 768      0.040200
     56 H2          4.8140    1.8640   -7.9030 hc        1 768      0.046950
     57 H2A         6.4380    1.2030   -7.4510 hc        1 768      0.046950
     58 H1          4.7110    0.9810   -5.6260 h1        1 768      0.031450
     59 H1A         5.4930   -0.5840   -6.1300 h1        1 768      0.031450
@<TRIPOS>BOND
     1    1    2 1   
     2    1   32 1   
     3    2    3 1   
     4    2   13 1   
     5    2   33 1   
     6    3    4 1   
     7    3   34 1   
     8    3   35 1   
     9    4    5 1   
    10    5    6 ar  
    11    5   11 ar  
    12    6    7 ar  
    13    6   36 1   
    14    7    8 ar  
    15    7   37 1   
    16    8    9 1   
    17    8   10 ar  
    18   10   11 ar  
    19   10   38 1   
    20   11   12 1   
    21   13   14 1   
    22   13   39 1   
    23   13   40 1   
    24   14   15 1   
    25   14   17 1   
    26   15   16 2   
    27   15   23 1   
    28   16   41 1   
    29   17   18 ar  
    30   17   22 ar  
    31   18   19 ar  
    32   18   42 1   
    33   19   20 ar  
    34   19   43 1   
    35   20   21 ar  
    36   20   44 1   
    37   21   22 ar  
    38   21   45 1   
    39   22   23 1   
    40   23   24 1   
    41   24   25 1   
    42   24   46 1   
    43   24   47 1   
    44   25   26 1   
    45   25   48 1   
    46   25   49 1   
    47   26   27 1   
    48   26   31 1   
    49   27   28 1   
    50   27   50 1   
    51   27   51 1   
    52   28   29 1   
    53   28   52 1   
    54   28   53 1   
    55   29   30 1   
    56   29   54 1   
    57   29   55 1   
    58   30   31 1   
    59   30   56 1   
    60   30   57 1   
    61   31   58 1   
    62   31   59 1   
@<TRIPOS>SUBSTRUCTURE
     1 768         1 TEMP              0 ****  ****    0 ROOT
