@<TRIPOS>MOLECULE
768
   59    62     1     0     0
SMALL
bcc


@<TRIPOS>ATOM
      1 O1         -0.8090    2.4980    0.7810 oh        1 768     -0.581800
      2 C16        -1.1130    1.1760    0.3840 c3        1 768      0.105100
      3 C17        -2.5940    1.1250   -0.0250 c3        1 768      0.096400
      4 O2         -2.8910   -0.2510   -0.2830 os        1 768     -0.311900
      5 C18        -4.2210   -0.5540   -0.4840 ca        1 768      0.136100
      6 C19        -5.2280    0.4110   -0.6250 ca        1 768     -0.191000
      7 C20        -6.5460    0.0210   -0.8460 ca        1 768     -0.089000
      8 C21        -6.8630   -1.3360   -0.9320 ca        1 768     -0.010600
      9 CL1        -8.4710   -1.8140   -1.2040 cl        1 768     -0.086400
     10 C22        -5.8690   -2.3090   -0.7950 ca        1 768     -0.093000
     11 C23        -4.5450   -1.9270   -0.5700 ca        1 768     -0.004600
     12 CL2        -3.3680   -3.1380   -0.4080 cl        1 768     -0.058400
     13 C15        -0.2410    0.6620   -0.7750 c3        1 768      0.001300
     14 N3          1.1850    0.7600   -0.6300 na        1 768     -0.154300
     15 C14         1.8620    0.0550    0.4570 cc        1 768      0.525300
     16 N4          1.4270   -1.0680    0.9380 n2        1 768     -0.827100
     17 C13         1.8610    2.0050   -0.7750 ca        1 768     -0.046200
     18 C12         1.5910    3.0780   -1.6140 ca        1 768     -0.142000
     19 C11         2.4920    4.1520   -1.6230 ca        1 768     -0.124000
     20 C10         3.6240    4.1550   -0.8170 ca        1 768     -0.132000
     21 C9          3.9140    3.0830    0.0390 ca        1 768     -0.113000
     22 C8          3.0360    2.0090    0.0650 ca        1 768     -0.057200
     23 N2          3.0310    0.8430    0.8870 na        1 768     -0.180300
     24 C7          4.2700    0.1450    1.1290 c3        1 768      0.008300
     25 C6          4.8610   -0.6040   -0.0900 c3        1 768      0.135800
     26 N1          6.1660   -1.1770    0.2060 n3        1 768     -0.731600
     27 C5          6.9790   -1.3280   -0.9950 c3        1 768      0.170800
     28 C4          8.3570   -1.9260   -0.7180 c3        1 768     -0.077400
     29 C3          8.2460   -3.2260    0.0480 c3        1 768     -0.079400
     30 C2          7.4280   -3.0270    1.3060 c3        1 768     -0.077400
     31 C1          6.0700   -2.4060    0.9840 c3        1 768      0.170800
     32 HO1        -0.6580    3.0190   -0.0190 ho        1 768      0.400000
     33 H16        -0.9490    0.5520    1.3080 h1        1 768      0.111700
     34 H17        -3.2270    1.5150    0.8140 h1        1 768      0.049200
     35 H17A       -2.7750    1.7270   -0.9530 h1        1 768      0.049200
     36 H19        -4.9910    1.4830   -0.5630 ha        1 768      0.147000
     37 H20        -7.3310    0.7850   -0.9550 ha        1 768      0.151000
     38 H22        -6.1270   -3.3790   -0.8630 ha        1 768      0.163000
     39 H15        -0.4960   -0.4290   -0.9230 h1        1 768      0.083200
     40 H15A       -0.5120    1.2250   -1.7140 h1        1 768      0.083200
     41 HN4         2.0070   -1.4900    1.6310 hn        1 768      0.405400
     42 H12         0.7060    3.0900   -2.2640 ha        1 768      0.136000
     43 H11         2.2910    5.0080   -2.2850 ha        1 768      0.135000
     44 H10         4.3120    5.0130   -0.8450 ha        1 768      0.136000
     45 H9          4.8120    3.1010    0.6720 ha        1 768      0.145000
     46 H7          5.0150    0.9080    1.4940 h1        1 768      0.069200
     47 H7A         4.0810   -0.5850    1.9660 h1        1 768      0.069200
     48 H6          4.1210   -1.3890   -0.4250 h1        1 768      0.044700
     49 H6A         4.9750    0.1350   -0.9340 h1        1 768      0.044700
     50 H5          6.4590   -1.9710   -1.7650 h1        1 768      0.030450
     51 H5A         7.1160   -0.3030   -1.4420 h1        1 768      0.030450
     52 H4          8.8700   -2.0980   -1.6990 hc        1 768      0.047700
     53 H4A         8.9750   -1.1960   -0.1320 hc        1 768      0.047700
     54 H3          7.7610   -4.0040   -0.5980 hc        1 768      0.041200
     55 H3A         9.2680   -3.6000    0.3150 hc        1 768      0.041200
     56 H2          7.2550   -4.0090    1.8150 hc        1 768      0.047700
     57 H2A         7.9870   -2.3650    2.0170 hc        1 768      0.047700
     58 H1          5.5520   -2.1540    1.9520 h1        1 768      0.030450
     59 H1A         5.4410   -3.1820    0.4530 h1        1 768      0.030450
@<TRIPOS>BOND
     1    1    2 1   
     2    1   32 1   
     3    2    3 1   
     4    2   13 1   
     5    2   33 1   
     6    3    4 1   
     7    3   34 1   
     8    3   35 1   
     9    4    5 1   
    10    5    6 ar  
    11    5   11 ar  
    12    6    7 ar  
    13    6   36 1   
    14    7    8 ar  
    15    7   37 1   
    16    8    9 1   
    17    8   10 ar  
    18   10   11 ar  
    19   10   38 1   
    20   11   12 1   
    21   13   14 1   
    22   13   39 1   
    23   13   40 1   
    24   14   15 1   
    25   14   17 1   
    26   15   16 2   
    27   15   23 1   
    28   16   41 1   
    29   17   18 ar  
    30   17   22 ar  
    31   18   19 ar  
    32   18   42 1   
    33   19   20 ar  
    34   19   43 1   
    35   20   21 ar  
    36   20   44 1   
    37   21   22 ar  
    38   21   45 1   
    39   22   23 1   
    40   23   24 1   
    41   24   25 1   
    42   24   46 1   
    43   24   47 1   
    44   25   26 1   
    45   25   48 1   
    46   25   49 1   
    47   26   27 1   
    48   26   31 1   
    49   27   28 1   
    50   27   50 1   
    51   27   51 1   
    52   28   29 1   
    53   28   52 1   
    54   28   53 1   
    55   29   30 1   
    56   29   54 1   
    57   29   55 1   
    58   30   31 1   
    59   30   56 1   
    60   30   57 1   
    61   31   58 1   
    62   31   59 1   
@<TRIPOS>SUBSTRUCTURE
     1 768         1 TEMP              0 ****  ****    0 ROOT
