@<TRIPOS>MOLECULE
768
   59    57     1     0     0
SMALL
bcc


@<TRIPOS>ATOM
      1 O1          2.5700   -0.8360    2.8180 oh        1 768     -0.324000
      2 C16         1.2260   -0.4550    2.7730 c3        1 768      0.001000
      3 C17         0.5520   -0.7930    4.1160 c3        1 768     -0.061000
      4 O2         -0.1040   -2.0510    4.0180 os        1 768     -0.232000
      5 C18        -0.9870   -2.3380    5.1150 c2        1 768      0.049000
      6 C19        -2.1770   -1.6150    5.2560 c2        1 768     -0.122000
      7 C20        -3.1300   -2.0180    6.1870 c1        1 768     -0.114000
      8 C21        -2.9010   -3.1350    6.9760 c1        1 768     -0.059000
      9 CL1        -4.0290   -3.5730    8.1650 cl        1 768      0.001000
     10 C22        -1.7120   -3.8610    6.8370 c1        1 768     -0.114000
     11 C23        -0.7580   -3.4600    5.9070 c1        1 768     -0.069000
     12 CL2         0.6690   -4.4240    5.6530 cl        1 768      0.012000
     13 C15         1.1290    1.0360    2.5270 c3        1 768     -0.052000
     14 N3          1.2950    1.3020    1.1570 n3        1 768     -0.206000
     15 C14         0.2450    1.3710    0.1780 c2        1 768      0.148000
     16 N4         -1.0060    1.1360    0.3880 n1        1 768     -0.292000
     17 C13         2.5330    1.6360    0.5030 c2        1 768     -0.016000
     18 C12         3.8350    1.8230    0.9990 c2        1 768     -0.109000
     19 C11         4.8310    2.2710    0.1620 c1        1 768     -0.130000
     20 C10         4.5530    2.5380   -1.1690 c1        1 768     -0.124500
     21 C9          3.2460    2.3490   -1.6690 c1        1 768     -0.124500
     22 C8          2.2520    1.9030   -0.8370 c1        1 768     -0.020000
     23 N2          0.8130    1.7360   -1.0390 n3        1 768     -0.152000
     24 C7          0.0760    1.9390   -2.3110 c3        1 768     -0.048000
     25 C6          0.1360    0.6500   -3.1570 c3        1 768     -0.096000
     26 N1         -1.0640    0.5610   -3.9950 n3        1 768     -0.255000
     27 C5         -1.5590   -0.8150   -4.0040 c3        1 768     -0.064000
     28 C4         -2.7290   -1.0090   -4.9760 c3        1 768     -0.156000
     29 C3         -2.4210   -0.5090   -6.3280 c3        1 768     -0.157000
     30 C2         -1.9180    0.8780   -6.3110 c3        1 768     -0.156000
     31 C1         -0.7570    1.0660   -5.3410 c3        1 768     -0.064000
     32 HO1         2.6330   -1.7000    2.7000 ho        1 768      0.221000
     33 H16         0.7790   -0.9320    2.0540 h1        1 768      0.097000
     34 H17        -0.1090   -0.0950    4.3370 h1        1 768      0.093000
     35 H17A        1.2350   -0.8330    4.8250 h1        1 768      0.093000
     36 H19        -2.3380   -0.8320    4.7060 ha        1 768      0.158000
     37 H20        -3.9550   -1.5170    6.2840 ha        1 768      0.156000
     38 H22        -1.5530   -4.6410    7.3890 ha        1 768      0.165000
     39 H15         1.8370    1.5020    3.0430 h1        1 768      0.118000
     40 H15A        0.2060    1.3740    2.8300 h1        1 768      0.118000
     41 HN4        -1.2870    0.9050    1.2050 DU        1 768      0.154000
     42 H12         4.0270    1.6390    1.9140 ha        1 768      0.145000
     43 H11         5.7210    2.4010    0.5030 ha        1 768      0.136000
     44 H10         5.2550    2.8520   -1.7560 ha        1 768      0.138500
     45 H9          3.0580    2.5290   -2.5650 ha        1 768      0.138500
     46 H7          0.4940    2.6920   -2.8230 h1        1 768      0.119500
     47 H7A        -0.8840    2.1630   -2.1090 h1        1 768      0.119500
     48 H6          0.9200    0.6730   -3.7200 h1        1 768      0.077500
     49 H6A         0.1790   -0.1110   -2.5770 h1        1 768      0.077500
     50 H5         -1.8620   -1.0570   -3.0800 h1        1 768      0.068500
     51 H5A        -0.7980   -1.4370   -4.2760 h1        1 768      0.068500
     52 H4         -2.9320   -1.9370   -5.0300 hc        1 768      0.087000
     53 H4A        -3.5080   -0.5350   -4.6320 hc        1 768      0.087000
     54 H3         -1.7840   -1.0540   -6.7120 hc        1 768      0.080000
     55 H3A        -3.2530   -0.5430   -6.8820 hc        1 768      0.080000
     56 H2         -2.6570    1.4820   -6.0470 hc        1 768      0.087000
     57 H2A        -1.6230    1.1150   -7.2040 hc        1 768      0.087000
     58 H1         -0.5530    2.0060   -5.2800 h1        1 768      0.068500
     59 H1A         0.0430    0.5850   -5.6940 h1        1 768      0.068500
@<TRIPOS>BOND
     1    1    2 1   
     2    1   32 1   
     3    2    3 1   
     4    2   13 1   
     5    2   33 1   
     6    3    4 1   
     7    3   34 1   
     8    3   35 1   
     9    4    5 1   
    10    5    6 1   
    11    5   11 1   
    12    6    7 1   
    13    6   36 1   
    14    7   37 1   
    15    8    9 1   
    16    8   10 1   
    17   10   38 1   
    18   11   12 1   
    19   13   14 1   
    20   13   39 1   
    21   13   40 1   
    22   14   15 1   
    23   14   17 1   
    24   15   16 1   
    25   15   23 1   
    26   17   18 1   
    27   17   22 1   
    28   18   19 1   
    29   18   42 1   
    30   19   43 1   
    31   20   21 1   
    32   20   44 1   
    33   21   45 1   
    34   22   23 1   
    35   23   24 1   
    36   24   25 1   
    37   24   46 1   
    38   24   47 1   
    39   25   26 1   
    40   25   48 1   
    41   25   49 1   
    42   26   27 1   
    43   26   31 1   
    44   27   28 1   
    45   27   50 1   
    46   27   51 1   
    47   28   29 1   
    48   28   52 1   
    49   28   53 1   
    50   29   30 1   
    51   29   54 1   
    52   29   55 1   
    53   30   31 1   
    54   30   56 1   
    55   30   57 1   
    56   31   58 1   
    57   31   59 1   
@<TRIPOS>SUBSTRUCTURE
     1 768         1 TEMP              0 ****  ****    0 ROOT
