@<TRIPOS>MOLECULE
76A
   62    67     1     0     0
SMALL
bcc


@<TRIPOS>ATOM
      1 O1         15.4500   -0.8800    3.7160 oh        1 76A     -0.496100
      2 C2         11.5340   -1.7090    4.8810 cp        1 76A     -0.075000
      3 C3         12.5590   -2.6580    5.0270 ca        1 76A     -0.081500
      4 C4         13.8600   -2.3700    4.6330 ca        1 76A     -0.186500
      5 C5         14.1450   -1.1080    4.0850 ca        1 76A      0.127100
      6 C6         13.1350   -0.1480    3.9340 ca        1 76A     -0.186500
      7 C7         11.8370   -0.4560    4.3310 ca        1 76A     -0.081500
      8 C8          7.5400   -2.6350    6.1030 ca        1 76A     -0.112500
      9 C9          8.6350   -3.0450    6.8780 ca        1 76A     -0.109500
     10 C10         9.9330   -2.7430    6.4780 ca        1 76A     -0.127000
     11 C11        10.1710   -2.0240    5.2980 cp        1 76A     -0.024000
     12 C12         9.0750   -1.6140    4.5240 ca        1 76A     -0.127000
     13 C13         7.7770   -1.9160    4.9210 ca        1 76A     -0.109500
     14 C14         6.1760   -2.9380    6.4970 cc        1 76A      0.399800
     15 N15         5.8370   -3.6450    7.6400 nd        1 76A     -0.516800
     16 N16         4.5100   -3.7430    7.6990 na        1 76A      0.041400
     17 C17         3.9140   -3.1220    6.6220 cd        1 76A     -0.100300
     18 C18         4.9700   -2.5810    5.8100 cc        1 76A     -0.245600
     19 C19         2.6270   -2.8270    6.0310 ca        1 76A      0.008000
     20 C20         2.8990   -2.0860    4.8300 ca        1 76A     -0.087300
     21 C21         4.3880   -1.8970    4.6250 c3        1 76A      0.045200
     22 C22         1.3280   -3.1230    6.4020 ca        1 76A     -0.119000
     23 C23         0.2810   -2.6810    5.5830 ca        1 76A     -0.075000
     24 C24         0.5390   -1.9480    4.4230 ca        1 76A     -0.138600
     25 C25         1.8580   -1.6510    4.0340 ca        1 76A     -0.095000
     26 C26        -0.6290   -1.5190    3.5970 c         1 76A      0.673700
     27 N27        -0.5660   -0.2680    3.0200 n         1 76A     -0.569900
     28 O28        -1.6230   -2.2600    3.4460 o         1 76A     -0.603100
     29 C29        -1.6420    0.2870    2.2300 c3        1 76A      0.098700
     30 C30        -1.2000    0.5930    0.7860 c3        1 76A     -0.089900
     31 C31        -2.3710    1.0940   -0.0280 c3        1 76A     -0.093900
     32 C32        -2.9830    2.3410    0.6020 c3        1 76A      0.140100
     33 C33        -3.3960    2.0720    2.0460 c3        1 76A     -0.093900
     34 C34        -2.2210    1.5710    2.8550 c3        1 76A     -0.089900
     35 O35        -4.1620    2.7390   -0.0870 oh        1 76A     -0.597800
     36 H35        -3.9240    2.8280   -1.0170 ho        1 76A      0.399000
     37 H32        -2.2360    3.1850    0.5690 h1        1 76A      0.030700
     38 H331       -4.2260    1.3180    2.0550 hc        1 76A      0.055700
     39 H332       -3.7950    3.0170    2.4960 hc        1 76A      0.055700
     40 H341       -1.4280    2.3620    2.9030 hc        1 76A      0.046450
     41 H342       -2.5600    1.3630    3.9030 hc        1 76A      0.046450
     42 H29        -2.4690   -0.4870    2.1860 h1        1 76A      0.095700
     43 H301       -0.7890   -0.3360    0.3110 hc        1 76A      0.046450
     44 H302       -0.3850    1.3630    0.7920 hc        1 76A      0.046450
     45 H311       -2.0290    1.3300   -1.0690 hc        1 76A      0.055700
     46 H312       -3.1580    0.2980   -0.1040 hc        1 76A      0.055700
     47 H27         0.2090    0.3190    3.2090 hn        1 76A      0.308500
     48 H23        -0.7620   -2.9210    5.8460 ha        1 76A      0.158000
     49 H22         1.1100   -3.6970    7.3140 ha        1 76A      0.141000
     50 H25         2.0630   -1.1000    3.1040 ha        1 76A      0.140000
     51 H211        4.7210   -2.3690    3.6660 hc        1 76A      0.076700
     52 H212        4.6530   -0.8080    4.6000 hc        1 76A      0.076700
     53 H16         4.0740   -4.2240    8.4510 hn        1 76A      0.329700
     54 H13         6.9270   -1.5910    4.3010 ha        1 76A      0.141000
     55 H12         9.2450   -1.0560    3.5910 ha        1 76A      0.135500
     56 H9          8.4770   -3.6080    7.8110 ha        1 76A      0.141000
     57 H7         11.0420    0.2980    4.2190 ha        1 76A      0.138000
     58 H6         13.3670    0.8380    3.5070 ha        1 76A      0.143000
     59 HO1        15.5070    0.0190    3.3590 ho        1 76A      0.419000
     60 H4         14.6650   -3.1100    4.7410 ha        1 76A      0.143000
     61 H3         12.3270   -3.6470    5.4520 ha        1 76A      0.138000
     62 H10        10.7830   -3.0650    7.0990 ha        1 76A      0.135500
@<TRIPOS>BOND
     1    1    5 1   
     2    1   59 1   
     3    2    3 ar  
     4    2    7 ar  
     5    2   11 1   
     6    3    4 ar  
     7    3   61 1   
     8    4    5 ar  
     9    4   60 1   
    10    5    6 ar  
    11    6    7 ar  
    12    6   58 1   
    13    7   57 1   
    14    8    9 ar  
    15    8   13 ar  
    16    8   14 1   
    17    9   10 ar  
    18    9   56 1   
    19   10   11 ar  
    20   10   62 1   
    21   11   12 ar  
    22   12   13 ar  
    23   12   55 1   
    24   13   54 1   
    25   14   15 2   
    26   14   18 1   
    27   15   16 1   
    28   16   17 1   
    29   16   53 1   
    30   17   18 2   
    31   17   19 1   
    32   18   21 1   
    33   19   20 ar  
    34   19   22 ar  
    35   20   21 1   
    36   20   25 ar  
    37   21   51 1   
    38   21   52 1   
    39   22   23 ar  
    40   22   49 1   
    41   23   24 ar  
    42   23   48 1   
    43   24   25 ar  
    44   24   26 1   
    45   25   50 1   
    46   26   27 1   
    47   26   28 2   
    48   27   29 1   
    49   27   47 1   
    50   29   30 1   
    51   29   34 1   
    52   29   42 1   
    53   30   31 1   
    54   30   43 1   
    55   30   44 1   
    56   31   32 1   
    57   31   45 1   
    58   31   46 1   
    59   32   33 1   
    60   32   35 1   
    61   32   37 1   
    62   33   34 1   
    63   33   38 1   
    64   33   39 1   
    65   34   40 1   
    66   34   41 1   
    67   35   36 1   
@<TRIPOS>SUBSTRUCTURE
     1 76A         1 TEMP              0 ****  ****    0 ROOT
