@<TRIPOS>MOLECULE
76A
   62    54     1     0     0
SMALL
bcc


@<TRIPOS>ATOM
      1 O1        -10.6670   -1.2430    6.0950 oh        1 76A     -0.250000
      2 C2         -6.7510   -0.9710    4.6600 c1        1 76A     -0.034667
      3 C3         -7.8000   -0.4650    3.9100 c1        1 76A     -0.121000
      4 C4         -9.1000   -0.5630    4.3820 c1        1 76A     -0.121000
      5 C5         -9.3500   -1.1680    5.6040 c1        1 76A      0.082000
      6 C6         -8.3010   -1.6740    6.3540 c1        1 76A     -0.214000
      7 C7         -7.0010   -1.5760    5.8830 c1        1 76A     -0.103000
      8 C8         -2.8310   -0.7210    3.2870 c1        1 76A     -0.034667
      9 C9         -3.5550    0.4360    3.5330 c1        1 76A     -0.121000
     10 C10        -4.8650    0.3530    3.9790 c1        1 76A     -0.121000
     11 C11        -5.4510   -0.8880    4.1800 c1        1 76A     -0.034667
     12 C12        -4.7270   -2.0440    3.9350 c1        1 76A     -0.103000
     13 C13        -3.4170   -1.9610    3.4890 c1        1 76A     -0.103000
     14 C14        -1.5350   -0.6380    2.8020 c1        1 76A     -0.036000
     15 N15        -0.7360   -0.4340    3.8880 n2        1 76A     -0.085000
     16 N16         0.5570   -0.2210    3.4360 n2        1 76A     -0.104000
     17 C17         0.5470   -0.2940    2.0810 c2        1 76A     -0.078000
     18 C18        -0.7510   -0.5530    1.6770 c1        1 76A     -0.170000
     19 C19         1.4060   -0.1900    0.8540 c1        1 76A      0.008000
     20 C20         0.5950   -0.3910   -0.2590 c1        1 76A     -0.079000
     21 C21        -0.7630   -0.6280    0.2130 c2        1 76A     -0.049000
     22 C22         2.7650    0.0900    0.6860 c1        1 76A     -0.122000
     23 C23         3.3070    0.1680   -0.5930 c1        1 76A     -0.103000
     24 C24         2.4930   -0.0340   -1.7100 c1        1 76A     -0.116000
     25 C25         1.1410   -0.3130   -1.5450 c2        1 76A     -0.069000
     26 C26         3.0380    0.1850   -3.1080 c1        1 76A      0.347000
     27 N27         4.3840    0.5970   -3.2880 n3        1 76A     -0.379000
     28 O28         2.3180    0.0230   -4.0730 o         1 76A     -0.363000
     29 C29         4.8940    0.8230   -4.6080 c3        1 76A      0.021000
     30 C30         6.0950   -0.0840   -4.8330 c3        1 76A     -0.168500
     31 C31         6.8090    0.2150   -6.1330 c3        1 76A     -0.172500
     32 C32         7.1570    1.6850   -6.2790 c3        1 76A      0.029000
     33 C33         5.9560    2.5920   -6.0540 c3        1 76A     -0.172500
     34 C34         5.2420    2.2930   -4.7530 c3        1 76A     -0.168500
     35 O35         7.6620    1.9090   -7.5860 oh        1 76A     -0.325000
     36 H35         8.5460    2.0050   -7.5500 ho        1 76A      0.198000
     37 H32         7.8510    1.9110   -5.6290 h1        1 76A      0.070000
     38 H331        5.3280    2.4750   -6.7940 hc        1 76A      0.095000
     39 H332        6.2600    3.5220   -6.0410 hc        1 76A      0.095000
     40 H341        4.4170    2.8190   -4.7180 hc        1 76A      0.086000
     41 H342        5.8180    2.5570   -4.0080 hc        1 76A      0.086000
     42 H29         4.1990    0.5970   -5.2580 h1        1 76A      0.135000
     43 H301        6.7230    0.0330   -4.0930 hc        1 76A      0.086000
     44 H302        5.7910   -1.0140   -4.8460 hc        1 76A      0.086000
     45 H311        7.6340   -0.3100   -6.1690 hc        1 76A      0.095000
     46 H312        6.2330   -0.0490   -6.8790 hc        1 76A      0.095000
     47 H27         4.9210    0.7320   -2.5630 hn        1 76A      0.222000
     48 H23         4.2560    0.3630   -0.7100 ha        1 76A      0.137000
     49 H22         3.3340    0.2310    1.4670 ha        1 76A      0.138000
     50 H25         0.5730   -0.4530   -2.3260 ha        1 76A      0.161000
     51 H211       -1.0610   -1.5160   -0.0710 ha        1 76A      0.119000
     52 H212       -1.3630    0.0540   -0.1490 ha        1 76A      0.119000
     53 H16         1.2870   -0.0590    3.9590 DU        1 76A      0.279000
     54 H13        -2.9080   -2.7760    3.3160 ha        1 76A      0.140667
     55 H12        -5.1400   -2.9180    4.0770 ha        1 76A      0.140667
     56 H10        -5.3740    1.1670    4.1520 ha        1 76A      0.140000
     57 H9         -3.1420    1.3100    3.3910 ha        1 76A      0.140000
     58 H7         -6.2620   -1.9320    6.4110 ha        1 76A      0.140667
     59 H6         -8.4770   -2.1000    7.2150 ha        1 76A      0.134000
     60 HO1       -10.7480   -0.7180    6.8080 ho        1 76A      0.218000
     61 H4         -9.8390   -0.2070    3.8530 ha        1 76A      0.140000
     62 H3         -7.6240   -0.0390    3.0500 ha        1 76A      0.140000
@<TRIPOS>BOND
     1    1    5 1   
     2    1   60 1   
     3    2    7 1   
     4    3    4 1   
     5    3   62 1   
     6    4   61 1   
     7    5    6 1   
     8    6   59 1   
     9    7   58 1   
    10    8   13 1   
    11    9   10 1   
    12    9   57 1   
    13   10   56 1   
    14   11   12 1   
    15   12   55 1   
    16   13   54 1   
    17   14   15 1   
    18   14   18 1   
    19   15   16 1   
    20   16   17 1   
    21   17   18 1   
    22   17   19 1   
    23   19   22 1   
    24   20   21 1   
    25   20   25 1   
    26   21   51 1   
    27   21   52 1   
    28   22   49 1   
    29   23   24 1   
    30   23   48 1   
    31   24   25 1   
    32   25   50 1   
    33   26   27 1   
    34   26   28 1   
    35   27   29 1   
    36   27   47 1   
    37   29   30 1   
    38   29   34 1   
    39   29   42 1   
    40   30   31 1   
    41   30   43 1   
    42   30   44 1   
    43   31   32 1   
    44   31   45 1   
    45   31   46 1   
    46   32   33 1   
    47   32   35 1   
    48   32   37 1   
    49   33   34 1   
    50   33   38 1   
    51   33   39 1   
    52   34   40 1   
    53   34   41 1   
    54   35   36 1   
@<TRIPOS>SUBSTRUCTURE
     1 76A         1 TEMP              0 ****  ****    0 ROOT
