@<TRIPOS>MOLECULE
76A
   63    68     1     0     0
SMALL
bcc


@<TRIPOS>ATOM
      1 O1          0.1390    0.6600    0.9070 oh        1 76A     -0.489100
      2 C2          4.0460   -0.4200   -0.0550 cp        1 76A     -0.094000
      3 C3          3.7650    0.4240    1.0320 ca        1 76A     -0.076500
      4 C4          2.4590    0.7780    1.3410 ca        1 76A     -0.186000
      5 C5          1.4090    0.2760    0.5520 ca        1 76A      0.139100
      6 C6          1.6720   -0.5700   -0.5350 ca        1 76A     -0.186000
      7 C7          2.9880   -0.9090   -0.8320 ca        1 76A     -0.076500
      8 C8          8.0880   -1.4760   -0.9700 ca        1 76A     -0.142500
      9 C9          7.6540   -1.4160    0.3620 ca        1 76A     -0.101000
     10 C10         6.3380   -1.0710    0.6570 ca        1 76A     -0.127500
     11 C11         5.4250   -0.7820   -0.3680 cp        1 76A      0.002000
     12 C12         5.8620   -0.8470   -1.7000 ca        1 76A     -0.127500
     13 C13         7.1760   -1.1880   -1.9970 ca        1 76A     -0.101000
     14 C14         9.4570   -1.8260   -1.3020 cc        1 76A      0.417800
     15 N15        10.3720   -2.3400   -0.3930 nd        1 76A     -0.475800
     16 N16        11.5270   -2.5420   -1.0110 na        1 76A      0.061400
     17 C17        11.4490   -2.1840   -2.3430 cd        1 76A     -0.153300
     18 C18        10.1060   -1.7110   -2.5710 cc        1 76A     -0.213600
     19 C19        12.2150   -2.1040   -3.5560 ca        1 76A      0.095000
     20 C20        11.3260   -1.5730   -4.5650 ca        1 76A     -0.083300
     21 C21         9.9520   -1.2980   -3.9890 c3        1 76A      0.038200
     22 C22        13.5310   -2.4100   -3.8690 ca        1 76A     -0.136000
     23 C23        13.9790   -2.2000   -5.1750 ca        1 76A     -0.020000
     24 C24        13.1140   -1.7000   -6.1640 ca        1 76A     -0.229600
     25 C25        11.7740   -1.3750   -5.8500 ca        1 76A     -0.088000
     26 C26        13.6860   -1.5060   -7.4910 c         1 76A      0.576700
     27 N27        12.7060   -1.5150   -8.6550 ny        1 76A     -0.679800
     28 O28        14.8610   -1.3450   -7.7930 o         1 76A     -0.433100
     29 C29        13.2320   -2.2390   -9.8700 c3        1 76A      0.117500
     30 C30        12.4430   -1.8430  -11.1250 c3        1 76A     -0.093400
     31 C31        13.0500   -2.5210  -12.3340 c3        1 76A     -0.100400
     32 C32        13.0770   -4.0400  -12.1680 c3        1 76A      0.142100
     33 C33        13.7990   -4.4390  -10.8830 c3        1 76A     -0.100400
     34 C34        13.1850   -3.7590   -9.6780 c3        1 76A     -0.093400
     35 O35        13.8090   -4.6380  -13.2240 oh        1 76A     -0.579800
     36 H35        13.3110   -4.4870  -14.0370 ho        1 76A      0.416000
     37 H32        12.0230   -4.4380  -12.1560 h1        1 76A      0.042700
     38 H331       14.8860   -4.1770  -10.9730 hc        1 76A      0.079450
     39 H332       13.7330   -5.5520  -10.7560 hc        1 76A      0.079450
     40 H341       12.1230   -4.0990   -9.5510 hc        1 76A      0.063200
     41 H342       13.7590   -4.0510   -8.7600 hc        1 76A      0.063200
     42 H29        14.3120   -1.9140   -9.9950 hx        1 76A      0.130700
     43 H301       12.4740   -0.7310  -11.2740 hc        1 76A      0.063200
     44 H302       11.3700   -2.1520  -11.0190 hc        1 76A      0.063200
     45 H311       14.0970   -2.1530  -12.5040 hc        1 76A      0.079450
     46 H312       12.4490   -2.2540  -13.2420 hc        1 76A      0.079450
     47 H27        12.5080   -0.5430   -8.9170 hn        1 76A      0.452300
     48 H23        15.0280   -2.4250   -5.4340 ha        1 76A      0.167000
     49 H22        14.2210   -2.8060   -3.1080 ha        1 76A      0.168000
     50 H25        11.0920   -0.9350   -6.5930 ha        1 76A      0.127000
     51 H211        9.1700   -1.9010   -4.5180 hc        1 76A      0.090700
     52 H212        9.6880   -0.2120   -4.0790 hc        1 76A      0.090700
     53 H16        12.3090   -2.9100   -0.5150 hn        1 76A      0.341700
     54 H13         7.5040   -1.2320   -3.0460 ha        1 76A      0.136000
     55 H12         5.1580   -0.6190   -2.5150 ha        1 76A      0.143000
     56 H7          3.1970   -1.5790   -1.6810 ha        1 76A      0.136500
     57 H6          0.8460   -0.9630   -1.1440 ha        1 76A      0.148500
     58 HO1        -0.4850    0.2370    0.2990 ho        1 76A      0.424000
     59 H4          2.2310    1.4410    2.1880 ha        1 76A      0.148500
     60 H3          4.5920    0.8170    1.6450 ha        1 76A      0.136500
     61 H10         6.0080   -1.0330    1.7070 ha        1 76A      0.143000
     62 H272       11.8320   -1.9600   -8.3560 hn        1 76A      0.452300
     63 H9          8.3480   -1.6400    1.1870 ha        1 76A      0.136000
@<TRIPOS>BOND
     1    1    5 1   
     2    1   58 1   
     3    2    3 ar  
     4    2    7 ar  
     5    2   11 1   
     6    3    4 ar  
     7    3   60 1   
     8    4    5 ar  
     9    4   59 1   
    10    5    6 ar  
    11    6    7 ar  
    12    6   57 1   
    13    7   56 1   
    14    8    9 ar  
    15    8   13 ar  
    16    8   14 1   
    17    9   10 ar  
    18    9   63 1   
    19   10   11 ar  
    20   10   61 1   
    21   11   12 ar  
    22   12   13 ar  
    23   12   55 1   
    24   13   54 1   
    25   14   15 2   
    26   14   18 1   
    27   15   16 1   
    28   16   17 1   
    29   16   53 1   
    30   17   18 2   
    31   17   19 1   
    32   18   21 1   
    33   19   20 ar  
    34   19   22 ar  
    35   20   21 1   
    36   20   25 ar  
    37   21   51 1   
    38   21   52 1   
    39   22   23 ar  
    40   22   49 1   
    41   23   24 ar  
    42   23   48 1   
    43   24   25 ar  
    44   24   26 1   
    45   25   50 1   
    46   26   27 1   
    47   26   28 2   
    48   27   29 1   
    49   27   47 1   
    50   27   62 1   
    51   29   30 1   
    52   29   34 1   
    53   29   42 1   
    54   30   31 1   
    55   30   43 1   
    56   30   44 1   
    57   31   32 1   
    58   31   45 1   
    59   31   46 1   
    60   32   33 1   
    61   32   35 1   
    62   32   37 1   
    63   33   34 1   
    64   33   38 1   
    65   33   39 1   
    66   34   40 1   
    67   34   41 1   
    68   35   36 1   
@<TRIPOS>SUBSTRUCTURE
     1 76A         1 TEMP              0 ****  ****    0 ROOT
