@<TRIPOS>MOLECULE
76A
   63    68     1     0     0
SMALL
bcc


@<TRIPOS>ATOM
      1 O1          0.1820    0.8680    0.8990 oh        1 76A     -0.489100
      2 C2          4.0620   -0.3050   -0.0600 cp        1 76A     -0.094000
      3 C3          3.8000    0.5360    1.0340 ca        1 76A     -0.076500
      4 C4          2.5020    0.9220    1.3410 ca        1 76A     -0.186000
      5 C5          1.4420    0.4540    0.5440 ca        1 76A      0.139100
      6 C6          1.6860   -0.3890   -0.5490 ca        1 76A     -0.186000
      7 C7          2.9940   -0.7600   -0.8450 ca        1 76A     -0.076500
      8 C8          8.0780   -1.4590   -0.9720 ca        1 76A     -0.142500
      9 C9          7.6410   -1.3990    0.3600 ca        1 76A     -0.101000
     10 C10         6.3330   -1.0220    0.6530 ca        1 76A     -0.127500
     11 C11         5.4320   -0.7010   -0.3720 cp        1 76A      0.002000
     12 C12         5.8710   -0.7660   -1.7030 ca        1 76A     -0.127500
     13 C13         7.1780   -1.1380   -1.9990 ca        1 76A     -0.101000
     14 C14         9.4390   -1.8410   -1.3020 cc        1 76A      0.416800
     15 N15        10.3350   -2.3910   -0.3960 nd        1 76A     -0.475800
     16 N16        11.4880   -2.6170   -1.0120 na        1 76A      0.061400
     17 C17        11.4250   -2.2400   -2.3390 cd        1 76A     -0.153300
     18 C18        10.0960   -1.7280   -2.5670 cc        1 76A     -0.213600
     19 C19        12.1980   -2.1660   -3.5490 ca        1 76A      0.095000
     20 C20        11.3290   -1.5980   -4.5540 ca        1 76A     -0.083300
     21 C21         9.9600   -1.2930   -3.9810 c3        1 76A      0.038200
     22 C22        13.5070   -2.5030   -3.8590 ca        1 76A     -0.136000
     23 C23        13.9660   -2.2880   -5.1600 ca        1 76A     -0.020000
     24 C24        13.1190   -1.7540   -6.1470 ca        1 76A     -0.229600
     25 C25        11.7870   -1.3960   -5.8350 ca        1 76A     -0.088000
     26 C26        13.7030   -1.5580   -7.4680 c         1 76A      0.576700
     27 N27        12.7280   -1.5240   -8.6370 n4        1 76A     -0.679800
     28 O28        14.8840   -1.4250   -7.7640 o         1 76A     -0.434100
     29 C29        13.2400   -2.2430   -9.8610 c3        1 76A      0.117500
     30 C30        12.4680   -1.8080  -11.1120 c3        1 76A     -0.093400
     31 C31        13.0620   -2.4830  -12.3290 c3        1 76A     -0.100400
     32 C32        13.0500   -4.0040  -12.1860 c3        1 76A      0.142100
     33 C33        13.7540   -4.4420  -10.9040 c3        1 76A     -0.100400
     34 C34        13.1530   -3.7630   -9.6920 c3        1 76A     -0.093400
     35 O35        13.7710   -4.6050  -13.2490 oh        1 76A     -0.579800
     36 H35        13.2800   -4.4290  -14.0610 ho        1 76A      0.416000
     37 H32        11.9850   -4.3750  -12.1850 h1        1 76A      0.042700
     38 H331       13.6600   -5.5540  -10.7950 hc        1 76A      0.079450
     39 H332       14.8480   -4.2070  -10.9870 hc        1 76A      0.079450
     40 H341       13.7160   -4.0840   -8.7760 hc        1 76A      0.063200
     41 H342       12.0830   -4.0790   -9.5750 hc        1 76A      0.063200
     42 H29        14.3290   -1.9440   -9.9770 hx        1 76A      0.130700
     43 H301       11.3860   -2.0900  -11.0150 hc        1 76A      0.063200
     44 H302       12.5280   -0.6950  -11.2450 hc        1 76A      0.063200
     45 H311       14.1190   -2.1390  -12.4900 hc        1 76A      0.079450
     46 H312       12.4730   -2.1870  -13.2360 hc        1 76A      0.079450
     47 H27        11.8420   -1.9500   -8.3480 hn        1 76A      0.452300
     48 H23        15.0100   -2.5390   -5.4180 ha        1 76A      0.167000
     49 H22        14.1830   -2.9270   -3.1000 ha        1 76A      0.168000
     50 H25        11.1210   -0.9290   -6.5750 ha        1 76A      0.127000
     51 H211        9.7250   -0.2000   -4.0580 hc        1 76A      0.090700
     52 H212        9.1640   -1.8690   -4.5200 hc        1 76A      0.090700
     53 H16        12.2570   -3.0120   -0.5170 hn        1 76A      0.341700
     54 H13         7.5080   -1.1820   -3.0470 ha        1 76A      0.136000
     55 H12         5.1760   -0.5120   -2.5180 ha        1 76A      0.143000
     56 H7          3.1880   -1.4280   -1.6980 ha        1 76A      0.136500
     57 H6          0.8520   -0.7550   -1.1640 ha        1 76A      0.148500
     58 HO1        -0.4520    0.4670    0.2850 ho        1 76A      0.424000
     59 H4          2.2890    1.5840    2.1930 ha        1 76A      0.148500
     60 H3          4.6350    0.9030    1.6520 ha        1 76A      0.136500
     61 H10         6.0010   -0.9850    1.7030 ha        1 76A      0.143000
     62 H272       12.5560   -0.5440   -8.8840 hn        1 76A      0.452300
     63 H9          8.3270   -1.6490    1.1850 ha        1 76A      0.136000
@<TRIPOS>BOND
     1    1    5 1   
     2    1   58 1   
     3    2    3 ar  
     4    2    7 ar  
     5    2   11 1   
     6    3    4 ar  
     7    3   60 1   
     8    4    5 ar  
     9    4   59 1   
    10    5    6 ar  
    11    6    7 ar  
    12    6   57 1   
    13    7   56 1   
    14    8    9 ar  
    15    8   13 ar  
    16    8   14 1   
    17    9   10 ar  
    18    9   63 1   
    19   10   11 ar  
    20   10   61 1   
    21   11   12 ar  
    22   12   13 ar  
    23   12   55 1   
    24   13   54 1   
    25   14   15 2   
    26   14   18 1   
    27   15   16 1   
    28   16   17 1   
    29   16   53 1   
    30   17   18 2   
    31   17   19 1   
    32   18   21 1   
    33   19   20 ar  
    34   19   22 ar  
    35   20   21 1   
    36   20   25 ar  
    37   21   51 1   
    38   21   52 1   
    39   22   23 ar  
    40   22   49 1   
    41   23   24 ar  
    42   23   48 1   
    43   24   25 ar  
    44   24   26 1   
    45   25   50 1   
    46   26   27 1   
    47   26   28 2   
    48   27   29 1   
    49   27   47 1   
    50   27   62 1   
    51   29   30 1   
    52   29   34 1   
    53   29   42 1   
    54   30   31 1   
    55   30   43 1   
    56   30   44 1   
    57   31   32 1   
    58   31   45 1   
    59   31   46 1   
    60   32   33 1   
    61   32   35 1   
    62   32   37 1   
    63   33   34 1   
    64   33   38 1   
    65   33   39 1   
    66   34   40 1   
    67   34   41 1   
    68   35   36 1   
@<TRIPOS>SUBSTRUCTURE
     1 76A         1 TEMP              0 ****  ****    0 ROOT
