@<TRIPOS>MOLECULE
76A
   63    68     1     0     0
SMALL
bcc


@<TRIPOS>ATOM
      1 O1          0.1760    0.8340    0.9030 oh        1 76A     -0.489100
      2 C2          4.0610   -0.3200   -0.0590 cp        1 76A     -0.094000
      3 C3          3.7950    0.5090    1.0430 ca        1 76A     -0.076500
      4 C4          2.4950    0.8880    1.3520 ca        1 76A     -0.186000
      5 C5          1.4380    0.4270    0.5470 ca        1 76A      0.139100
      6 C6          1.6870   -0.4040   -0.5550 ca        1 76A     -0.186000
      7 C7          2.9960   -0.7690   -0.8520 ca        1 76A     -0.076500
      8 C8          8.0820   -1.4560   -0.9740 ca        1 76A     -0.142500
      9 C9          7.6420   -1.4110    0.3570 ca        1 76A     -0.101000
     10 C10         6.3320   -1.0400    0.6510 ca        1 76A     -0.127500
     11 C11         5.4330   -0.7100   -0.3720 cp        1 76A      0.002000
     12 C12         5.8750   -0.7590   -1.7030 ca        1 76A     -0.127500
     13 C13         7.1830   -1.1260   -2.0000 ca        1 76A     -0.101000
     14 C14         9.4440   -1.8320   -1.3060 cc        1 76A      0.417800
     15 N15        10.3430   -2.3770   -0.4000 nd        1 76A     -0.475800
     16 N16        11.4960   -2.5990   -1.0170 na        1 76A      0.061400
     17 C17        11.4310   -2.2220   -2.3450 cd        1 76A     -0.153300
     18 C18        10.1000   -1.7160   -2.5720 cc        1 76A     -0.213600
     19 C19        12.2030   -2.1450   -3.5540 ca        1 76A      0.095000
     20 C20        11.3300   -1.5820   -4.5600 ca        1 76A     -0.083300
     21 C21         9.9600   -1.2820   -3.9850 c3        1 76A      0.038200
     22 C22        13.5120   -2.4770   -3.8660 ca        1 76A     -0.136000
     23 C23        13.9700   -2.2610   -5.1680 ca        1 76A     -0.020000
     24 C24        13.1200   -1.7310   -6.1540 ca        1 76A     -0.229600
     25 C25        11.7860   -1.3780   -5.8410 ca        1 76A     -0.088000
     26 C26        13.7010   -1.5340   -7.4760 c         1 76A      0.576700
     27 N27        12.7250   -1.5100   -8.6450 n4        1 76A     -0.679800
     28 O28        14.8810   -1.3940   -7.7730 o         1 76A     -0.434100
     29 C29        13.2380   -2.2380   -9.8620 c3        1 76A      0.117500
     30 C30        12.4660   -1.8130  -11.1180 c3        1 76A     -0.093400
     31 C31        13.0620   -2.4980  -12.3290 c3        1 76A     -0.100900
     32 C32        13.0470   -4.0180  -12.1740 c3        1 76A      0.142100
     33 C33        13.7510   -4.4460  -10.8880 c3        1 76A     -0.100900
     34 C34        13.1500   -3.7580   -9.6820 c3        1 76A     -0.093400
     35 O35        13.7690   -4.6280  -13.2310 oh        1 76A     -0.579800
     36 H35        13.2790   -4.4580  -14.0450 ho        1 76A      0.416000
     37 H32        11.9830   -4.3880  -12.1700 h1        1 76A      0.042700
     38 H331       14.8450   -4.2120  -10.9710 hc        1 76A      0.079450
     39 H332       13.6560   -5.5570  -10.7700 hc        1 76A      0.079450
     40 H341       13.7110   -4.0720   -8.7630 hc        1 76A      0.063200
     41 H342       12.0790   -4.0710   -9.5620 hc        1 76A      0.063200
     42 H29        14.3270   -1.9410   -9.9800 hx        1 76A      0.130700
     43 H301       11.3850   -2.0940  -11.0190 hc        1 76A      0.063200
     44 H302       12.5280   -0.7010  -11.2590 hc        1 76A      0.063200
     45 H311       12.4720   -2.2080  -13.2380 hc        1 76A      0.079450
     46 H312       14.1180   -2.1560  -12.4910 hc        1 76A      0.079450
     47 H27        11.8400   -1.9330   -8.3520 hn        1 76A      0.452300
     48 H23        15.0150   -2.5070   -5.4260 ha        1 76A      0.167000
     49 H22        14.1910   -2.8980   -3.1080 ha        1 76A      0.168000
     50 H25        11.1180   -0.9150   -6.5810 ha        1 76A      0.127000
     51 H211        9.7220   -0.1890   -4.0620 hc        1 76A      0.090700
     52 H212        9.1660   -1.8610   -4.5240 hc        1 76A      0.090700
     53 H16        12.2680   -2.9900   -0.5230 hn        1 76A      0.341700
     54 H13         7.5150   -1.1570   -3.0480 ha        1 76A      0.136000
     55 H12         5.1810   -0.4980   -2.5170 ha        1 76A      0.143000
     56 H7          3.1940   -1.4270   -1.7120 ha        1 76A      0.137000
     57 H6          0.8550   -0.7650   -1.1760 ha        1 76A      0.148500
     58 HO1        -0.4550    0.4390    0.2840 ho        1 76A      0.424000
     59 H4          2.2790    1.5400    2.2100 ha        1 76A      0.148500
     60 H3          4.6270    0.8700    1.6670 ha        1 76A      0.137000
     61 H10         5.9970   -1.0140    1.7000 ha        1 76A      0.143000
     62 H272       12.5540   -0.5310   -8.9000 hn        1 76A      0.452300
     63 H9          8.3260   -1.6680    1.1810 ha        1 76A      0.136000
@<TRIPOS>BOND
     1    1    5 1   
     2    1   58 1   
     3    2    3 ar  
     4    2    7 ar  
     5    2   11 1   
     6    3    4 ar  
     7    3   60 1   
     8    4    5 ar  
     9    4   59 1   
    10    5    6 ar  
    11    6    7 ar  
    12    6   57 1   
    13    7   56 1   
    14    8    9 ar  
    15    8   13 ar  
    16    8   14 1   
    17    9   10 ar  
    18    9   63 1   
    19   10   11 ar  
    20   10   61 1   
    21   11   12 ar  
    22   12   13 ar  
    23   12   55 1   
    24   13   54 1   
    25   14   15 2   
    26   14   18 1   
    27   15   16 1   
    28   16   17 1   
    29   16   53 1   
    30   17   18 2   
    31   17   19 1   
    32   18   21 1   
    33   19   20 ar  
    34   19   22 ar  
    35   20   21 1   
    36   20   25 ar  
    37   21   51 1   
    38   21   52 1   
    39   22   23 ar  
    40   22   49 1   
    41   23   24 ar  
    42   23   48 1   
    43   24   25 ar  
    44   24   26 1   
    45   25   50 1   
    46   26   27 1   
    47   26   28 2   
    48   27   29 1   
    49   27   47 1   
    50   27   62 1   
    51   29   30 1   
    52   29   34 1   
    53   29   42 1   
    54   30   31 1   
    55   30   43 1   
    56   30   44 1   
    57   31   32 1   
    58   31   45 1   
    59   31   46 1   
    60   32   33 1   
    61   32   35 1   
    62   32   37 1   
    63   33   34 1   
    64   33   38 1   
    65   33   39 1   
    66   34   40 1   
    67   34   41 1   
    68   35   36 1   
@<TRIPOS>SUBSTRUCTURE
     1 76A         1 TEMP              0 ****  ****    0 ROOT
