@<TRIPOS>MOLECULE
76D
   41    41     1     0     0
SMALL
bcc


@<TRIPOS>ATOM
      1 OAG        -0.0470    0.2820    0.0260 o         1 76D     -0.827300
      2 CAK         1.1850    0.0060    0.0540 c         1 76D      0.905200
      3 OAH         1.8240   -0.2700    1.1080 o         1 76D     -0.827300
      4 CAO         1.9490    0.0040   -1.2670 ca        1 76D     -0.082600
      5 CAM         2.2860    1.2160   -1.8940 ca        1 76D     -0.063800
      6 CAQ         1.8950    2.5280   -1.2810 c3        1 76D     -0.031400
      7 CAD         3.1220    3.3090   -0.8510 c3        1 76D     -0.079600
      8 CAC         1.0470    3.3490   -2.2320 c3        1 76D     -0.079600
      9 CAI         2.9920    1.2060   -3.1010 ca        1 76D     -0.136000
     10 CAL         3.3590    0.0030   -3.7080 ca        1 76D     -0.119300
     11 CAP         4.1080   -0.0100   -5.0030 c3        1 76D     -0.010400
     12 CAB         3.3010    0.6440   -6.1090 c3        1 76D     -0.084100
     13 CAA         5.4580    0.6690   -4.8620 c3        1 76D     -0.084100
     14 CAJ         3.0160   -1.2000   -3.0860 ca        1 76D     -0.136000
     15 CAN         2.3230   -1.2080   -1.8710 ca        1 76D     -0.063800
     16 CAR         1.9850   -2.5180   -1.2250 c3        1 76D     -0.031400
     17 CAF         1.0010   -3.3000   -2.0730 c3        1 76D     -0.079600
     18 CAE         3.2330   -3.3400   -0.9640 c3        1 76D     -0.079600
     19 H2          1.2700    2.3180   -0.3600 hc        1 76D      0.104700
     20 H3          2.8160    4.2710   -0.3740 hc        1 76D      0.023450
     21 H4          3.7150    2.7160   -0.1140 hc        1 76D      0.023450
     22 H5          3.7740    3.5400   -1.7280 hc        1 76D      0.023450
     23 H6          0.7210    4.2940   -1.7340 hc        1 76D      0.023450
     24 H7          0.1390    2.7700   -2.5290 hc        1 76D      0.023450
     25 H8          1.6180    3.6150   -3.1540 hc        1 76D      0.023450
     26 H9          3.2620    2.1590   -3.5810 ha        1 76D      0.108500
     27 H10         4.2920   -1.0830   -5.3010 hc        1 76D      0.035700
     28 H11         3.8600    0.5980   -7.0750 hc        1 76D      0.027533
     29 H12         3.0990    1.7150   -5.8650 hc        1 76D      0.027533
     30 H13         2.3230    0.1210   -6.2340 hc        1 76D      0.027533
     31 H14         6.0170    0.6230   -5.8270 hc        1 76D      0.027533
     32 H15         6.0630    0.1640   -4.0720 hc        1 76D      0.027533
     33 H16         5.3290    1.7400   -4.5760 hc        1 76D      0.027533
     34 H17         3.2950   -2.1550   -3.5560 ha        1 76D      0.108500
     35 H18         1.5000   -2.3070   -0.2240 hc        1 76D      0.104700
     36 H19         0.0660   -2.7070   -2.2190 hc        1 76D      0.023450
     37 H20         0.7390   -4.2610   -1.5690 hc        1 76D      0.023450
     38 H21         1.4360   -3.5320   -3.0750 hc        1 76D      0.023450
     39 H22         3.9430   -2.7610   -0.3270 hc        1 76D      0.023450
     40 H23         3.7460   -3.6080   -1.9190 hc        1 76D      0.023450
     41 H24         2.9630   -4.2840   -0.4310 hc        1 76D      0.023450
@<TRIPOS>BOND
     1    1    2 1   
     2    2    3 1   
     3    2    4 1   
     4    4    5 ar  
     5    4   15 ar  
     6    5    6 1   
     7    5    9 ar  
     8    6    7 1   
     9    6    8 1   
    10    6   19 1   
    11    7   20 1   
    12    7   21 1   
    13    7   22 1   
    14    8   23 1   
    15    8   24 1   
    16    8   25 1   
    17    9   10 ar  
    18    9   26 1   
    19   10   11 1   
    20   10   14 ar  
    21   11   12 1   
    22   11   13 1   
    23   11   27 1   
    24   12   28 1   
    25   12   29 1   
    26   12   30 1   
    27   13   31 1   
    28   13   32 1   
    29   13   33 1   
    30   14   15 ar  
    31   14   34 1   
    32   15   16 1   
    33   16   17 1   
    34   16   18 1   
    35   16   35 1   
    36   17   36 1   
    37   17   37 1   
    38   17   38 1   
    39   18   39 1   
    40   18   40 1   
    41   18   41 1   
@<TRIPOS>SUBSTRUCTURE
     1 76D         1 TEMP              0 ****  ****    0 ROOT
