@<TRIPOS>MOLECULE
76E
   52    55     1     0     0
SMALL
bcc


@<TRIPOS>ATOM
      1 C1          0.3390   -0.0850   -0.0010 ca        1 76E     -0.158000
      2 C2          9.2270   -3.4080    2.8080 ca        1 76E     -0.078000
      3 C3          1.7200   -0.0380    0.1850 ca        1 76E     -0.021000
      4 C4          2.1400   -5.1200    2.8050 ca        1 76E     -0.135000
      5 C5          0.7590   -5.2360    2.9040 ca        1 76E     -0.113000
      6 C6          8.5850   -3.7320    1.6190 ca        1 76E     -0.170000
      7 C7         -0.5150   -0.0580    1.1000 ca        1 76E      0.010000
      8 C8          8.5530   -3.4880    4.0260 ca        1 76E     -0.144000
      9 C9          2.0340   -3.0270    4.0420 ca        1 76E     -0.164000
     10 C10         1.3790    0.0800    2.5800 ca        1 76E      0.030000
     11 C11         6.5470   -4.2390    2.8710 ca        1 76E     -0.182600
     12 C12         0.6510   -3.1510    4.1540 ca        1 76E     -0.114300
     13 C13         2.2360    0.0460    1.4810 ca        1 76E     -0.195300
     14 C14         2.8010   -4.0010    3.3590 ca        1 76E      0.065600
     15 C15         0.0130   -4.2520    3.5660 ca        1 76E      0.081100
     16 C16         7.2400   -4.1510    1.6450 ca        1 76E      0.182900
     17 C17        -0.0070    0.0160    2.4030 ca        1 76E     -0.368500
     18 C18         7.2170   -3.9000    4.0530 ca        1 76E      0.061400
     19 C19         5.1350   -4.7400    2.8890 c         1 76E      0.690700
     20 C20        -0.1240   -2.1340    4.9440 c3        1 76E      0.267100
     21 C21        -2.3620   -2.2550    3.9820 c3        1 76E      0.184800
     22 C22        -2.1680   -3.4730    3.0730 c3        1 76E      0.113400
     23 C23         3.7410    0.1050    1.7100 c3        1 76E      0.693200
     24 N24        -1.1800   -1.4710    4.2200 n3        1 76E     -0.805500
     25 O26         4.8660   -5.9160    2.5930 o         1 76E     -0.561100
     26 O29        -1.3540   -4.4720    3.6890 os        1 76E     -0.332900
     27 F30         6.6200   -4.4590    0.4850 f         1 76E     -0.118900
     28 F31         4.5030   -0.3120    0.6470 f         1 76E     -0.237300
     29 F32         4.2220    1.3580    2.0000 f         1 76E     -0.237300
     30 F33         4.1800   -0.6700    2.7600 f         1 76E     -0.237300
     31 S34        -1.0470    0.0810    3.7450 sy        1 76E      1.501200
     32 CL35        6.4160   -3.9910    5.5480 cl        1 76E     -0.067400
     33 H1         -0.0750   -0.1410   -1.0190 ha        1 76E      0.152000
     34 H3          2.4040   -0.0680   -0.6800 ha        1 76E      0.158000
     35 H7         -1.6090   -0.0800    0.9490 ha        1 76E      0.161000
     36 H6          9.1110   -3.6700    0.6540 ha        1 76E      0.159000
     37 H8          9.0710   -3.2290    4.9630 ha        1 76E      0.158000
     38 H4          2.7100   -5.9100    2.2880 ha        1 76E      0.177000
     39 H5          0.2430   -6.1060    2.4710 ha        1 76E      0.153000
     40 H9          2.5310   -2.1490    4.4880 ha        1 76E      0.135000
     41 H10         1.7980    0.1640    3.6010 ha        1 76E      0.164000
     42 H201       -0.5730   -2.6710    5.8330 h1        1 76E      0.072200
     43 H202        0.5790   -1.3430    5.3430 h1        1 76E      0.072200
     44 H211       -2.7560   -2.6260    4.9750 h1        1 76E      0.073700
     45 H212       -3.1540   -1.5960    3.5170 h1        1 76E      0.073700
     46 H221       -1.7540   -3.1850    2.0740 h1        1 76E      0.061200
     47 H222       -3.1580   -3.9910    2.9440 h1        1 76E      0.061200
     48 N25         4.1840   -3.7910    3.2330 n         1 76E     -0.462100
     49 O27        -0.3930    0.8310    4.7440 o         1 76E     -0.645800
     50 O28        -2.3020    0.5520    3.2990 o         1 76E     -0.645800
     51 H2         10.2790   -3.0830    2.7890 ha        1 76E      0.149000
     52 H25         4.5120   -2.8880    3.5030 hn        1 76E      0.331500
@<TRIPOS>BOND
     1    1    3 ar  
     2    1    7 ar  
     3    1   33 1   
     4    2    6 ar  
     5    2    8 ar  
     6    2   51 1   
     7    3   13 ar  
     8    3   34 1   
     9    4    5 ar  
    10    4   14 ar  
    11    4   38 1   
    12    5   15 ar  
    13    5   39 1   
    14    6   16 ar  
    15    6   36 1   
    16    7   17 ar  
    17    7   35 1   
    18    8   18 ar  
    19    8   37 1   
    20    9   12 ar  
    21    9   14 ar  
    22    9   40 1   
    23   10   13 ar  
    24   10   17 ar  
    25   10   41 1   
    26   11   16 ar  
    27   11   18 ar  
    28   11   19 1   
    29   12   15 ar  
    30   12   20 1   
    31   13   23 1   
    32   14   48 1   
    33   15   26 1   
    34   16   27 1   
    35   17   31 1   
    36   18   32 1   
    37   19   25 2   
    38   19   48 1   
    39   20   24 1   
    40   20   42 1   
    41   20   43 1   
    42   21   22 1   
    43   21   24 1   
    44   21   44 1   
    45   21   45 1   
    46   22   26 1   
    47   22   46 1   
    48   22   47 1   
    49   23   28 1   
    50   23   29 1   
    51   23   30 1   
    52   24   31 1   
    53   31   49 2   
    54   31   50 2   
    55   48   52 1   
@<TRIPOS>SUBSTRUCTURE
     1 76E         1 TEMP              0 ****  ****    0 ROOT
