@<TRIPOS>MOLECULE
76E
   52    53     1     0     0
SMALL
bcc


@<TRIPOS>ATOM
      1 C1          0.8310    0.1710    0.4620 c3        1 76E     -0.234000
      2 C2          9.0520   -3.2340    1.8160 c2        1 76E     -0.196000
      3 C3          2.2620    0.0910    0.7320 c1        1 76E     -0.046000
      4 C4          2.1720   -5.2550    3.1960 c3        1 76E     -0.180000
      5 C5          0.7590   -5.4050    3.4540 c1        1 76E     -0.155000
      6 C6          8.4610   -4.1910    1.0590 c2        1 76E     -0.059000
      7 C7         -0.0880    0.1800    1.6160 c2        1 76E      0.092000
      8 C8          8.4380   -2.7120    2.9950 c1        1 76E     -0.006000
      9 C9          2.0720   -3.0290    4.3070 c2        1 76E     -0.272000
     10 C10         1.7920    0.1600    3.1290 c2        1 76E      0.113000
     11 C11         6.4100   -4.1230    2.4250 c2        1 76E     -0.194000
     12 C12         0.6870   -3.2220    4.5630 c2        1 76E      0.007000
     13 C13         2.6730    0.0530    2.0850 c2        1 76E     -0.280000
     14 C14         2.8180   -3.9680    3.6150 c2        1 76E      0.104000
     15 C15         0.0590   -4.3600    4.0930 c2        1 76E     -0.059000
     16 C16         7.1080   -4.6510    1.3720 c2        1 76E      0.141000
     17 C17         0.3760    0.1870    2.8990 c2        1 76E     -0.888000
     18 C18         7.0350   -3.0530    3.2520 c3        1 76E     -0.103000
     19 C19         5.0370   -4.6150    2.7310 c2        1 76E      0.358000
     20 C20        -0.0680   -2.1790    5.3450 c3        1 76E      0.015000
     21 C21        -3.1730   -2.7630    2.2670 c2        1 76E     -0.527000
     22 C22        -2.3810   -1.9290    1.6650 c1        1 76E      0.109000
     23 C23         4.1630   -0.0920    2.3550 c3        1 76E      0.484000
     24 N24        -0.9200   -1.3560    4.5370 n7        1 76E     -0.884000
     25 O26         4.7010   -5.7860    2.4840 o         1 76E     -0.321000
     26 O29        -1.3090   -4.4720    4.2820 oh        1 76E     -0.286000
     27 F30         6.5940   -5.5940    0.5560 f         1 76E     -0.067000
     28 F31         4.8110   -1.0180    1.5730 f         1 76E     -0.173333
     29 F32         4.8990    1.0550    2.2190 f         1 76E     -0.173333
     30 F33         4.4670   -0.5350    3.6290 f         1 76E     -0.173333
     31 S34        -0.6690    0.2070    4.2450 s6        1 76E      2.851000
     32 Cl35        6.8610   -3.4200    4.9700 cl        1 76E     -0.032000
     33 H1          0.5640   -0.6930   -0.2240 hc        1 76E      0.190000
     34 H3          0.6640    1.1050   -0.1610 hc        1 76E      0.190000
     35 H7         -1.1780    0.1570    1.4080 ha        1 76E      0.184000
     36 H6          8.9560   -4.6650    0.1940 ha        1 76E      0.163000
     37 H8          6.4760   -2.0730    3.0820 h1        1 76E      0.191000
     38 H4          2.3460   -5.4410    2.0900 hc        1 76E      0.196000
     39 H5          2.7030   -6.1240    3.7030 hc        1 76E      0.196000
     40 H9          2.5330   -2.0930    4.6670 ha        1 76E      0.141000
     41 H10         2.1410    0.2210    4.1810 ha        1 76E      0.170000
     42 H201       -0.7020   -2.7260    6.1060 h1        1 76E      0.117500
     43 H202        0.6560   -1.5170    5.9070 h1        1 76E      0.117500
     44 H211       -4.2670   -2.6510    2.3490 ha        1 76E      0.211500
     45 H212       -1.6690   -1.8620    4.1150 hn        1 76E      0.261000
     46 H221       -1.5330   -5.3990    4.0960 ho        1 76E      0.240000
     47 H222       -2.7990   -3.6820    2.7640 ha        1 76E      0.211500
     48 N25         4.1430   -3.7000    3.2900 ns        1 76E     -0.309000
     49 O27         0.0430    0.7970    5.3110 o         1 76E     -0.927000
     50 O28        -1.8750    0.8140    3.8440 o         1 76E     -0.927000
     51 H2         10.0630   -2.8640    1.5760 ha        1 76E      0.170000
     52 H25         4.4880   -2.7910    3.5290 hn        1 76E      0.250000
@<TRIPOS>BOND
     1    1    3 1   
     2    1    7 1   
     3    1   33 1   
     4    1   34 1   
     5    2    6 1   
     6    2    8 1   
     7    2   51 1   
     8    3   13 1   
     9    4    5 1   
    10    4   14 1   
    11    4   38 1   
    12    4   39 1   
    13    5   15 1   
    14    6   16 1   
    15    6   36 1   
    16    7   17 1   
    17    7   35 1   
    18    8   18 1   
    19    9   12 1   
    20    9   14 1   
    21    9   40 1   
    22   10   13 1   
    23   10   17 1   
    24   10   41 1   
    25   11   16 1   
    26   11   18 1   
    27   11   19 1   
    28   12   15 1   
    29   12   20 1   
    30   13   23 1   
    31   14   48 1   
    32   15   26 1   
    33   16   27 1   
    34   17   31 1   
    35   18   32 1   
    36   18   37 1   
    37   19   25 1   
    38   19   48 1   
    39   20   24 1   
    40   20   42 1   
    41   20   43 1   
    42   21   22 1   
    43   21   44 1   
    44   21   47 1   
    45   23   28 1   
    46   23   29 1   
    47   23   30 1   
    48   24   31 1   
    49   24   45 1   
    50   26   46 1   
    51   31   49 1   
    52   31   50 1   
    53   48   52 1   
@<TRIPOS>SUBSTRUCTURE
     1 76E         1 TEMP              0 ****  ****    0 ROOT
