@<TRIPOS>MOLECULE
76V
   58    55     1     0     0
SMALL
bcc


@<TRIPOS>ATOM
      1 C10        -1.7950   -1.6350   -3.4960 c2        1 76V     -0.232000
      2 C11        -1.2310   -0.4580   -3.7320 c2        1 76V     -0.232000
      3 C9         -3.2800   -0.6720   -0.0660 c2        1 76V      0.203000
      4 O2         -3.9040   -1.3310   -0.8980 o         1 76V     -0.303000
      5 O3         -2.0080   -0.2960   -0.3920 oh        1 76V     -0.361000
      6 C3         -2.3960   -1.5120    2.6150 c3        1 76V     -0.135000
      7 C2         -3.7720   -0.0890    1.2180 c1        1 76V      0.144000
      8 O1         -3.3760   -0.4660    2.3690 os        1 76V     -0.075000
      9 O4         -0.6490   -1.1450    4.2300 o         1 76V     -0.421000
     10 N1         -0.4410   -0.0290    2.2510 n         1 76V     -0.407000
     11 C5          0.5050   -1.1280    7.2580 c2        1 76V     -0.305000
     12 C6          1.6800   -0.7790    7.9740 c2        1 76V      0.287000
     13 O5          2.6470   -0.1960    7.3000 os        1 76V     -0.124000
     14 C12        -0.5740   -1.6570    7.9010 c2        1 76V      0.104000
     15 C14         3.8560    0.1920    8.0310 c3        1 76V     -0.042000
     16 C13        -1.8140   -2.0140    7.2070 c3        1 76V     -0.257000
     17 C15         4.6760   -1.0220    8.3680 c3        1 76V     -0.260000
     18 N2          0.2560    1.7310   12.6600 n3        1 76V     -0.328000
     19 C7          0.8200    2.6450   11.7040 c3        1 76V     -0.047000
     20 C8          1.7190    1.9140   10.7080 c2        1 76V      0.336000
     21 O7          3.0030    2.3840   10.7140 os        1 76V     -0.266000
     22 C16         1.7460    3.7890   12.2140 c3        1 76V     -0.175000
     23 C18         3.1610    3.4300   11.7180 c3        1 76V      0.031000
     24 C17         1.6600    4.0450   13.6940 c3        1 76V     -0.214000
     25 C19         4.1150    2.9210   12.7730 c3        1 76V     -0.231000
     26 O6          1.4900    1.0180    9.8950 o         1 76V     -0.393000
     27 H101       -1.8060   -0.5330   -1.3190 ho        1 76V      0.270000
     28 H102       -2.8160   -1.7380   -3.0960 ha        1 76V      0.118000
     29 H111       -1.2860   -2.5870   -3.6980 ha        1 76V      0.118000
     30 H112       -0.2170   -0.3560   -4.1440 ha        1 76V      0.118000
     31 H113       -1.7470    0.4950   -3.5520 ha        1 76V      0.118000
     32 H3         -2.2320   -2.1260    1.6930 h1        1 76V      0.139000
     33 H2         -2.8360   -2.1290    3.4410 h1        1 76V      0.139000
     34 HN1        -0.7880    0.1680    1.3420 hn        1 76V      0.245500
     35 H5          4.3620    0.8550    7.2760 h1        1 76V      0.150000
     36 H12         0.4780   -0.9440    6.1630 ha        1 76V      0.219000
     37 H141       -0.5550   -1.8290    8.9950 ha        1 76V      0.143000
     38 H142        3.5490    0.7810    8.9380 h1        1 76V      0.150000
     39 H131       -2.0700   -3.0870    7.4160 hc        1 76V      0.137333
     40 H132       -2.6560   -1.3820    7.5990 hc        1 76V      0.137333
     41 H133       -1.7400   -1.8660    6.0970 hc        1 76V      0.137333
     42 H151        4.9130   -1.6150    7.4510 hc        1 76V      0.108333
     43 H152        4.1400   -1.6810    9.0930 hc        1 76V      0.108333
     44 H153        5.6380   -0.6900    8.8340 hc        1 76V      0.108333
     45 HN2         0.9450    1.3990   13.3060 hn        1 76V      0.168500
     46 H7         -0.4950    2.1640   13.1620 hn        1 76V      0.168500
     47 H16        -0.0330    3.0990   11.1170 h1        1 76V      0.144000
     48 H181        1.4310    4.7310   11.6820 hc        1 76V      0.118000
     49 H182        3.6170    4.2910   11.1570 h1        1 76V      0.127000
     50 H171        2.3000    4.9200   13.9650 hc        1 76V      0.092000
     51 H172        2.0040    3.1680   14.2950 hc        1 76V      0.092000
     52 H173        0.6060    4.2820   13.9820 hc        1 76V      0.092000
     53 H191        3.6930    2.0340   13.3020 hc        1 76V      0.097667
     54 H192        5.0790    2.6190   12.2950 hc        1 76V      0.097667
     55 H193        4.3180    3.7290   13.5160 hc        1 76V      0.097667
     56 H121        0.4080    0.3930    2.5360 hn        1 76V      0.245500
     57 H22         1.8010   -0.9770    9.0620 h4        1 76V      0.190000
     58 C4         -1.0960   -0.8740    3.0920 c2        1 76V      0.311000
@<TRIPOS>BOND
     1    1    2 1   
     2    1   28 1   
     3    1   29 1   
     4    2   30 1   
     5    2   31 1   
     6    3    4 1   
     7    3    5 1   
     8    3    7 1   
     9    5   27 1   
    10    6    8 1   
    11    6   32 1   
    12    6   33 1   
    13    6   58 1   
    14    7    8 1   
    15    9   58 1   
    16   10   34 1   
    17   10   56 1   
    18   10   58 1   
    19   11   12 1   
    20   11   14 1   
    21   11   36 1   
    22   12   13 1   
    23   12   57 1   
    24   13   15 1   
    25   14   16 1   
    26   14   37 1   
    27   15   17 1   
    28   15   35 1   
    29   15   38 1   
    30   16   39 1   
    31   16   40 1   
    32   16   41 1   
    33   17   42 1   
    34   17   43 1   
    35   17   44 1   
    36   18   19 1   
    37   18   45 1   
    38   18   46 1   
    39   19   20 1   
    40   19   22 1   
    41   19   47 1   
    42   20   21 1   
    43   20   26 1   
    44   21   23 1   
    45   22   23 1   
    46   22   24 1   
    47   22   48 1   
    48   23   25 1   
    49   23   49 1   
    50   24   50 1   
    51   24   51 1   
    52   24   52 1   
    53   25   53 1   
    54   25   54 1   
    55   25   55 1   
@<TRIPOS>SUBSTRUCTURE
     1 76V         1 TEMP              0 ****  ****    0 ROOT
