@<TRIPOS>MOLECULE
76V
   58    54     1     0     0
SMALL
bcc


@<TRIPOS>ATOM
      1 C10         0.3200   -2.8460   -1.6960 c2        1 76V     -0.232000
      2 C11         1.3060   -2.0920   -2.1660 c2        1 76V     -0.232000
      3 C9         -1.6670    0.0730   -0.1330 c2        1 76V      0.202000
      4 O2         -2.2150   -0.8680   -0.7080 o         1 76V     -0.301000
      5 O3         -0.3100    0.0320   -0.0040 oh        1 76V     -0.341000
      6 C3         -1.8340    0.9130    2.6840 c3        1 76V     -0.137000
      7 C2         -2.2880    1.3440    0.3450 c1        1 76V      0.164000
      8 O1         -2.3590    1.6890    1.5710 os        1 76V     -0.098000
      9 O4         -0.4740    1.3600    4.6000 o         1 76V     -0.520000
     10 N1         -1.6430    3.1430    3.8030 nt        1 76V     -0.378000
     11 C5          0.0540   -1.8770    9.0980 c2        1 76V     -0.277000
     12 C6          1.0260    1.4120    6.4540 c1        1 76V      0.508000
     13 O5          0.8200    2.5490    6.5080 o         1 76V      0.063000
     14 C12         0.7030   -3.0390    9.0810 c2        1 76V     -0.136000
     15 C14         1.2850    0.0020    6.3720 c3        1 76V     -0.154000
     16 C13         0.1360   -4.3020    8.5680 c3        1 76V     -0.201000
     17 C15         2.7320   -0.2950    6.0410 c3        1 76V     -0.223000
     18 N2          2.4170    0.4990   11.4910 n8        1 76V     -0.331000
     19 C7          1.2090    1.2660   11.3560 c3        1 76V     -0.048000
     20 C8          1.0990    1.8720    9.9560 c2        1 76V      0.350000
     21 O7          1.0240    3.2310    9.9710 os        1 76V     -0.247000
     22 C16         0.9990    2.5080   12.2700 c3        1 76V     -0.175000
     23 C18         1.1140    3.7330   11.3410 c3        1 76V      0.030000
     24 C17         1.9080    2.5580   13.4680 c3        1 76V     -0.214000
     25 C19         2.3930    4.5280   11.4580 c3        1 76V     -0.232000
     26 O6          1.0340    1.3410    8.8420 o         1 76V     -0.431000
     27 H101        0.0590   -0.7180   -0.5130 ho        1 76V      0.267000
     28 H102       -0.7400   -2.5550   -1.7690 ha        1 76V      0.118000
     29 H111        0.4950   -3.8190   -1.2180 ha        1 76V      0.118000
     30 H112        1.1310   -1.1290   -2.6660 ha        1 76V      0.118000
     31 H113        2.3620   -2.3890   -2.1070 ha        1 76V      0.118000
     32 H3         -1.0250    0.2220    2.3270 h1        1 76V      0.149000
     33 H2         -2.6960    0.3390    3.1160 h1        1 76V      0.149000
     34 HN1        -2.2500    3.5260    3.1150 hn        1 76V      0.251500
     35 H5          1.0020   -0.4590    7.3780 hc        1 76V      0.212000
     36 H12        -0.9770   -1.7690    8.7350 ha        1 76V      0.112500
     37 H141        1.7320   -3.1180    9.4750 ha        1 76V      0.124000
     38 H142        0.5910   -0.4190    5.5790 hc        1 76V      0.212000
     39 H131        0.7930   -4.7260    7.7680 hc        1 76V      0.090000
     40 H132        0.0730   -5.0530    9.3960 hc        1 76V      0.090000
     41 H133       -0.8900   -4.1600    8.1470 hc        1 76V      0.090000
     42 H151        2.8570   -1.4060    5.9940 hc        1 76V      0.117333
     43 H152        3.0200    0.1360    5.0520 hc        1 76V      0.117333
     44 H153        3.4160    0.1020    6.8300 hc        1 76V      0.117333
     45 HN2         3.2240    1.0880   11.5570 hn        1 76V      0.170500
     46 H7          2.3690   -0.0990   12.2910 hn        1 76V      0.170500
     47 H16         0.3340    0.5600   11.4840 h1        1 76V      0.146000
     48 H181       -0.0630    2.4670   12.6450 hc        1 76V      0.119000
     49 H182        0.2190    4.4050   11.4500 h1        1 76V      0.130000
     50 H171        2.9830    2.6550   13.1790 hc        1 76V      0.093333
     51 H172        1.6440    3.4370   14.1080 hc        1 76V      0.093333
     52 H173        1.7860    1.6320   14.0820 hc        1 76V      0.093333
     53 H191        2.4520    4.9950   12.4710 hc        1 76V      0.099333
     54 H192        2.4060    5.3360   10.6860 hc        1 76V      0.099333
     55 H193        3.2870    3.8790   11.3020 hc        1 76V      0.099333
     56 H121       -1.2740    3.7430    4.5000 hn        1 76V      0.251500
     57 H22         0.5010   -0.9600    9.5130 ha        1 76V      0.112500
     58 C4         -1.2720    1.8410    3.7480 c2        1 76V      0.347000
@<TRIPOS>BOND
     1    1    2 1   
     2    1   28 1   
     3    1   29 1   
     4    2   30 1   
     5    2   31 1   
     6    3    4 1   
     7    3    5 1   
     8    3    7 1   
     9    5   27 1   
    10    6    8 1   
    11    6   32 1   
    12    6   33 1   
    13    6   58 1   
    14    7    8 1   
    15    9   58 1   
    16   10   34 1   
    17   10   56 1   
    18   10   58 1   
    19   11   14 1   
    20   11   36 1   
    21   11   57 1   
    22   12   13 1   
    23   12   15 1   
    24   14   16 1   
    25   14   37 1   
    26   15   17 1   
    27   15   35 1   
    28   15   38 1   
    29   16   39 1   
    30   16   40 1   
    31   16   41 1   
    32   17   42 1   
    33   17   43 1   
    34   17   44 1   
    35   18   19 1   
    36   18   45 1   
    37   18   46 1   
    38   19   20 1   
    39   19   22 1   
    40   19   47 1   
    41   20   21 1   
    42   20   26 1   
    43   21   23 1   
    44   22   23 1   
    45   22   24 1   
    46   22   48 1   
    47   23   25 1   
    48   23   49 1   
    49   24   50 1   
    50   24   51 1   
    51   24   52 1   
    52   25   53 1   
    53   25   54 1   
    54   25   55 1   
@<TRIPOS>SUBSTRUCTURE
     1 76V         1 TEMP              0 ****  ****    0 ROOT
