@<TRIPOS>MOLECULE
76V
   56    56     1     0     0
SMALL
bcc


@<TRIPOS>ATOM
      1 C10        -5.8430    2.8690   -0.6890 c3        1 76V      0.140400
      2 C11        -5.4330    4.2520   -1.1330 c3        1 76V     -0.101100
      3 C9         -4.8070    1.0050    0.3760 c         1 76V      0.645100
      4 O2         -5.8960    0.4400    0.2590 o         1 76V     -0.536000
      5 O3         -4.6750    2.2820   -0.0860 os        1 76V     -0.426900
      6 C3         -3.3990   -0.9930    1.1640 cx        1 76V      0.018100
      7 C2         -3.5360    0.4770    0.9470 cx        1 76V     -0.000900
      8 O1         -3.6510   -0.1020    2.2570 os        1 76V     -0.346600
      9 N1         -1.2190   -1.3520    0.1040 n         1 76V     -0.519900
     10 C5          0.1850   -1.7040    0.0870 c3        1 76V      0.007700
     11 C6          1.0870   -0.4420    0.2450 c         1 76V      0.627100
     12 O5          0.6030    0.6980    0.0650 o         1 76V     -0.645100
     13 C12         0.6150   -2.4120   -1.2190 c3        1 76V     -0.086700
     14 C14         0.2860   -1.5830   -2.4540 c3        1 76V     -0.072400
     15 C13        -0.0020   -3.7900   -1.3020 c3        1 76V     -0.081100
     16 C15         1.2590   -1.8640   -3.5720 c3        1 76V     -0.107100
     17 N2          2.3880   -0.6640    0.6540 n         1 76V     -0.479900
     18 C7          3.4550    0.2010    0.1580 c3        1 76V     -0.064300
     19 C8          4.1420   -0.4130   -1.1190 c         1 76V      0.902600
     20 O7          4.9040    0.3360   -1.7820 o         1 76V     -0.834800
     21 C16         4.4990    0.4800    1.2610 c3        1 76V     -0.036700
     22 C18         5.3110    1.7060    0.8660 c3        1 76V     -0.091400
     23 C17         5.3800   -0.7290    1.4870 c3        1 76V     -0.088100
     24 C19         6.2850    2.1320    1.9330 c3        1 76V     -0.083100
     25 O6          3.8730   -1.6130   -1.4230 o         1 76V     -0.834800
     26 H101       -6.6640    2.8970    0.0740 h1        1 76V      0.050200
     27 H102       -6.1630    2.2280   -1.5510 h1        1 76V      0.050200
     28 H111       -5.0970    4.8610   -0.2600 hc        1 76V      0.049033
     29 H112       -4.5920    4.1960   -1.8640 hc        1 76V      0.049033
     30 H113       -6.3060    4.7530   -1.6150 hc        1 76V      0.049033
     31 H3         -4.2390   -1.6810    0.9310 h1        1 76V      0.128700
     32 H2         -2.6550    1.1400    0.8090 h1        1 76V      0.147700
     33 HN1        -1.4440   -0.5480   -0.4430 hn        1 76V      0.318500
     34 H5          0.3770   -2.4100    0.9510 h1        1 76V      0.094700
     35 H12         1.7430   -2.5270   -1.1740 hc        1 76V      0.121700
     36 H141       -0.7630   -1.7950   -2.7880 hc        1 76V      0.033700
     37 H142        0.3420   -0.4910   -2.1940 hc        1 76V      0.033700
     38 H131        0.3820   -4.3180   -2.2080 hc        1 76V      0.029367
     39 H132        0.2650   -4.3920   -0.4000 hc        1 76V      0.029367
     40 H133       -1.1150   -3.7340   -1.3720 hc        1 76V      0.029367
     41 H151        2.3100   -1.6670   -3.2270 hc        1 76V      0.044367
     42 H152        1.1880   -2.9290   -3.8990 hc        1 76V      0.044367
     43 H153        1.0380   -1.2090   -4.4490 hc        1 76V      0.044367
     44 HN2         2.6710   -1.6280    0.6130 hn        1 76V      0.297500
     45 H7          2.9970    1.1850   -0.1520 h1        1 76V      0.075700
     46 H16         3.9620    0.7160    2.2240 hc        1 76V      0.027700
     47 H181        5.8500    1.4850   -0.0970 hc        1 76V      0.063700
     48 H182        4.6040    2.5530    0.6590 hc        1 76V      0.063700
     49 H171        4.7670   -1.6080    1.7970 hc        1 76V      0.030367
     50 H172        5.9200   -0.9920    0.5440 hc        1 76V      0.030367
     51 H173        6.1290   -0.5250    2.2900 hc        1 76V      0.030367
     52 H191        6.7390    3.1180    1.6670 hc        1 76V      0.017367
     53 H192        5.7760    2.2340    2.9220 hc        1 76V      0.017367
     54 H193        7.1110    1.3890    2.0410 hc        1 76V      0.017367
     55 C4         -2.0430   -1.6660    1.1610 c         1 76V      0.663100
     56 O4         -1.7720   -2.5240    2.0210 o         1 76V     -0.586100
@<TRIPOS>BOND
     1    1    2 1   
     2    1    5 1   
     3    1   26 1   
     4    1   27 1   
     5    2   28 1   
     6    2   29 1   
     7    2   30 1   
     8    3    4 2   
     9    3    5 1   
    10    3    7 1   
    11    6    7 1   
    12    6    8 1   
    13    6   31 1   
    14    6   55 1   
    15    7    8 1   
    16    7   32 1   
    17    9   10 1   
    18    9   33 1   
    19    9   55 1   
    20   10   11 1   
    21   10   13 1   
    22   10   34 1   
    23   11   12 2   
    24   11   17 1   
    25   13   14 1   
    26   13   15 1   
    27   13   35 1   
    28   14   16 1   
    29   14   36 1   
    30   14   37 1   
    31   15   38 1   
    32   15   39 1   
    33   15   40 1   
    34   16   41 1   
    35   16   42 1   
    36   16   43 1   
    37   17   18 1   
    38   17   44 1   
    39   18   19 1   
    40   18   21 1   
    41   18   45 1   
    42   19   20 1   
    43   19   25 1   
    44   21   22 1   
    45   21   23 1   
    46   21   46 1   
    47   22   24 1   
    48   22   47 1   
    49   22   48 1   
    50   23   49 1   
    51   23   50 1   
    52   23   51 1   
    53   24   52 1   
    54   24   53 1   
    55   24   54 1   
    56   55   56 2   
@<TRIPOS>SUBSTRUCTURE
     1 76V         1 TEMP              0 ****  ****    0 ROOT
