@<TRIPOS>MOLECULE
76V
   58    49     1     0     0
SMALL
bcc


@<TRIPOS>ATOM
      1 C10         1.7870    2.0490    1.9660 c2        1 76V     -0.227000
      2 C11         2.4720    1.4370    2.9230 c2        1 76V     -0.227000
      3 C9         -4.9700    0.3770    0.7800 c1        1 76V      0.665600
      4 O2         -5.4110    1.2830    0.1670 o         1 76V     -0.271500
      5 O3         -0.6610    1.5970    4.3800 oh        1 76V     -0.874000
      6 C3         -3.5190   -1.5840    1.8690 cx        1 76V      0.106300
      7 C2         -4.2990   -0.3900    1.6130 cu        1 76V     -0.335200
      8 O1         -4.6840   -1.2480    2.6610 os        1 76V     -0.265900
      9 N1         -2.1820   -0.5630    3.7640 n4        1 76V     -0.730400
     10 C5         -0.7970   -1.8250    8.4400 ce        1 76V     -0.248200
     11 C6         -0.7210   -0.9650    7.2390 c         1 76V      0.697300
     12 O5         -1.4650   -1.1900    6.2420 o         1 76V     -0.757100
     13 C12         0.2380   -2.1090    9.2370 c2        1 76V     -0.087200
     14 C14         3.4830   -0.6700    8.6650 c1        1 76V     -0.166500
     15 C13         0.1390   -2.9970   10.4110 c3        1 76V     -0.087900
     16 C15         4.1310   -1.6700    8.5690 c1        1 76V     -0.166500
     17 N2          0.1360    0.0940    7.2000 n         1 76V     -0.650000
     18 C7          2.7390    4.2280    6.6450 cg        1 76V     -0.255200
     19 C8          1.9720    3.0400    6.7520 c         1 76V      0.718300
     20 O7          1.2040    2.5590    5.9070 o         1 76V     -0.563000
     21 C16         3.3740    5.2350    6.5200 c1        1 76V      0.043500
     22 C18         4.8320    3.1010    9.8700 c1        1 76V     -0.166500
     23 C17         1.0660    1.3060   10.5540 c3        1 76V     -0.121800
     24 C19         3.8850    3.5610   10.4390 c1        1 76V     -0.166500
     25 O6          2.0370    2.2930    7.8910 oh        1 76V     -0.600100
     26 H101        0.2380    1.7580    4.0660 ho        1 76V      0.438000
     27 H102        3.1290    0.5780    2.7270 ha        1 76V      0.114500
     28 H111        1.1430    2.9170    2.1590 ha        1 76V      0.114500
     29 H112        1.8340    1.7410    0.9120 ha        1 76V      0.114500
     30 H113        2.4370    1.7570    3.9750 ha        1 76V      0.114500
     31 H3         -3.5950   -2.5170    1.2690 h1        1 76V      0.166700
     32 H2         -0.7910    2.2550    5.0710 ho        1 76V      0.438000
     33 HN1        -1.2560   -0.5670    4.2420 hn        1 76V      0.494133
     34 H5         -1.8000   -2.2560    8.6010 ha        1 76V      0.162000
     35 H12        -2.8760   -0.9010    4.4480 hn        1 76V      0.494133
     36 H141        2.9160    0.2250    8.7550 ha        1 76V      0.168000
     37 H142        1.2510   -1.7030    9.0490 ha        1 76V      0.133000
     38 H131        0.8890   -3.8250   10.3240 hc        1 76V      0.061033
     39 H132       -0.8790   -3.4480   10.5160 hc        1 76V      0.061033
     40 H133        0.3680   -2.4180   11.3410 hc        1 76V      0.061033
     41 H151        3.0480   -4.6170    9.7130 ha        1 76V      0.000500
     42 H152        3.1550   -3.9880    9.4830 ha        1 76V      0.000500
     43 H153        4.7070   -2.5590    8.4870 ha        1 76V      0.168000
     44 HN2         0.7160    0.3230    7.9720 hn        1 76V      0.327500
     45 H7          2.6450    2.6920    8.5410 ho        1 76V      0.465000
     46 H16         0.5170    1.8180    9.7320 hc        1 76V      0.031200
     47 H181        5.6830    2.6930    9.3820 ha        1 76V      0.168000
     48 H182        3.9430    6.1310    6.4180 ha        1 76V      0.193500
     49 H171        1.0960    0.2110   10.3580 hc        1 76V      0.031200
     50 H172        2.1050    1.7040   10.6050 hc        1 76V      0.031200
     51 H173        0.5490    1.4950   11.5210 hc        1 76V      0.031200
     52 H191        0.8370    3.8120   11.3260 ha        1 76V      0.000500
     53 H192        0.8160    4.4290   11.6050 ha        1 76V      0.000500
     54 H193        3.0610    3.9750   10.9680 ha        1 76V      0.168000
     55 H121       -2.4010    0.4100    3.5140 hn        1 76V      0.494133
     56 H22         0.1870    0.6750    6.3940 hn        1 76V      0.327500
     57 C4         -2.1940   -1.4220    2.5520 c         1 76V      0.554100
     58 O4         -1.1420   -1.9270    2.1910 o         1 76V     -0.393100
@<TRIPOS>BOND
     1    1    2 2   
     2    1   28 1   
     3    1   29 1   
     4    2   27 1   
     5    2   30 1   
     6    3    4 2   
     7    3    7 2   
     8    5   26 1   
     9    5   32 1   
    10    6    7 1   
    11    6    8 1   
    12    6   31 1   
    13    6   57 1   
    14    7    8 1   
    15    9   33 1   
    16    9   35 1   
    17    9   55 1   
    18    9   57 1   
    19   10   11 1   
    20   10   13 2   
    21   10   34 1   
    22   11   12 2   
    23   11   17 1   
    24   13   15 1   
    25   13   37 1   
    26   14   16 3   
    27   14   36 1   
    28   15   38 1   
    29   15   39 1   
    30   15   40 1   
    31   16   43 1   
    32   17   44 1   
    33   17   56 1   
    34   18   19 1   
    35   18   21 3   
    36   19   20 2   
    37   19   25 1   
    38   21   48 1   
    39   22   24 3   
    40   22   47 1   
    41   23   46 1   
    42   23   49 1   
    43   23   50 1   
    44   23   51 1   
    45   24   54 1   
    46   25   45 1   
    47   41   42 1   
    48   52   53 1   
    49   57   58 2   
@<TRIPOS>SUBSTRUCTURE
     1 76V         1 TEMP              0 ****  ****    0 ROOT
