@<TRIPOS>MOLECULE
770
   40    44     1     0     0
SMALL
bcc


@<TRIPOS>ATOM
      1 CL1        -3.2960    0.3860    2.4520 cl        1 770     -0.088400
      2 C8         -4.0600    0.6310    0.9530 ca        1 770      0.039400
      3 C9         -5.4540    0.7510    0.9210 ca        1 770     -0.126000
      4 C10        -6.1050    0.9520   -0.2940 ca        1 770     -0.111000
      5 C11        -5.3700    1.0320   -1.4770 ca        1 770     -0.128000
      6 C12        -3.9830    0.9100   -1.4470 ca        1 770     -0.093000
      7 C7         -3.3120    0.7080   -0.2330 cp        1 770     -0.047000
      8 C2         -1.8490    0.5990   -0.2270 cp        1 770      0.058000
      9 C3         -1.1840   -0.5840   -0.5130 ca        1 770     -0.153600
     10 C6         -1.7140   -1.9430   -0.8640 c         1 770      0.726100
     11 O2         -2.8770   -2.3330   -0.9820 o         1 770     -0.568500
     12 N1         -0.5870   -2.7790   -1.0650 n         1 770     -0.624500
     13 C4          0.2430   -0.6710   -0.5050 ca        1 770     -0.089600
     14 C5          0.6230   -2.0750   -0.8720 c         1 770      0.723100
     15 O1          1.7440   -2.5710   -1.0110 o         1 770     -0.566500
     16 C13         1.0030    0.4270   -0.1990 cp        1 770      0.000000
     17 C14         0.2960    1.6780    0.0770 ca        1 770     -0.000200
     18 C1         -1.0910    1.7540    0.0680 ca        1 770     -0.142000
     19 C15         2.4220    0.7200   -0.0670 cp        1 770     -0.065000
     20 C16         2.5180    2.1230    0.2570 ca        1 770     -0.034200
     21 N2          1.2320    2.7130    0.2690 na        1 770     -0.175300
     22 C18         3.7640    2.7180    0.4480 ca        1 770     -0.134000
     23 C20         4.9000    1.9240    0.3270 ca        1 770     -0.141000
     24 C17         3.5580   -0.0620   -0.1830 ca        1 770     -0.073000
     25 C19         4.8200    0.5440    0.0180 ca        1 770      0.030600
     26 N3          6.0150   -0.1900   -0.1070 n         1 770     -0.488100
     27 C21         6.1710   -1.5460    0.1070 c         1 770      0.661900
     28 O3          5.2590   -2.3230    0.4210 o         1 770     -0.567100
     29 H9         -6.0340    0.6810    1.8540 ha        1 770      0.149000
     30 H10        -7.2010    1.0420   -0.3180 ha        1 770      0.139000
     31 H11        -5.8850    1.1850   -2.4370 ha        1 770      0.139000
     32 H12        -3.4050    0.9640   -2.3820 ha        1 770      0.143000
     33 HN1        -0.6410   -3.7370   -1.2990 hn        1 770      0.347500
     34 H1         -1.6100    2.6990    0.2870 ha        1 770      0.153000
     35 HN2         1.0280    3.4980    0.8370 hn        1 770      0.288700
     36 H18         3.8570    3.7860    0.6880 ha        1 770      0.141000
     37 H20         5.8830    2.3980    0.4800 ha        1 770      0.132000
     38 H17         3.4690   -1.1400   -0.4160 ha        1 770      0.200000
     39 HN3         6.8360    0.3520   -0.2590 hn        1 770      0.315500
     40 H21         7.2260   -1.8810   -0.0430 h5        1 770      0.030200
@<TRIPOS>BOND
     1    1    2 1   
     2    2    3 ar  
     3    2    7 ar  
     4    3    4 ar  
     5    3   29 1   
     6    4    5 ar  
     7    4   30 1   
     8    5    6 ar  
     9    5   31 1   
    10    6    7 ar  
    11    6   32 1   
    12    7    8 1   
    13    8    9 ar  
    14    8   18 ar  
    15    9   10 1   
    16    9   13 ar  
    17   10   11 2   
    18   10   12 1   
    19   12   14 1   
    20   12   33 1   
    21   13   14 1   
    22   13   16 ar  
    23   14   15 2   
    24   16   17 ar  
    25   16   19 1   
    26   17   18 ar  
    27   17   21 1   
    28   18   34 1   
    29   19   20 ar  
    30   19   24 ar  
    31   20   21 1   
    32   20   22 ar  
    33   21   35 1   
    34   22   23 ar  
    35   22   36 1   
    36   23   25 ar  
    37   23   37 1   
    38   24   25 ar  
    39   24   38 1   
    40   25   26 1   
    41   26   27 1   
    42   26   39 1   
    43   27   28 2   
    44   27   40 1   
@<TRIPOS>SUBSTRUCTURE
     1 770         1 TEMP              0 ****  ****    0 ROOT
