@<TRIPOS>MOLECULE
770
   41    45     1     0     0
SMALL
bcc


@<TRIPOS>ATOM
      1 CL1         0.2330   -1.1010   -0.0460 cl        1 770     -0.086400
      2 C8          1.8280   -0.5110   -0.0150 ca        1 770      0.040400
      3 C9          2.5380   -0.5450    1.1900 ca        1 770     -0.118000
      4 C10         3.8450   -0.0650    1.2360 ca        1 770     -0.096000
      5 C11         4.4450    0.4500    0.0870 ca        1 770     -0.121000
      6 C12         3.7380    0.4880   -1.1130 ca        1 770     -0.090000
      7 C7          2.4230    0.0090   -1.1760 cp        1 770     -0.082000
      8 C2          1.6980    0.0480   -2.4500 cp        1 770      0.087000
      9 C3          1.0700    1.1970   -2.9190 ca        1 770     -0.131600
     10 C6          0.9520    2.5730   -2.3210 c         1 770      0.723100
     11 O2          1.4030    3.0200   -1.2710 o         1 770     -0.517500
     12 N1          0.1750    3.3470   -3.2350 n         1 770     -0.609500
     13 C4          0.3670    1.2180   -4.1570 ca        1 770     -0.091600
     14 C5         -0.2080    2.5920   -4.3520 c         1 770      0.737100
     15 O1         -0.8930    3.0000   -5.3000 o         1 770     -0.621500
     16 C13         0.2990    0.0900   -4.9330 cp        1 770     -0.025000
     17 C14         0.9580   -1.1130   -4.4410 ca        1 770      0.003800
     18 C1          1.6420   -1.1290   -3.2290 ca        1 770     -0.114000
     19 C15        -0.3020   -0.2610   -6.2030 cp        1 770     -0.078000
     20 C16         0.0090   -1.6630   -6.4320 ca        1 770      0.063800
     21 N2          0.7630   -2.1510   -5.3760 na        1 770     -0.173300
     22 C18        -0.4500   -2.3010   -7.5980 ca        1 770     -0.146000
     23 C20        -1.1950   -1.5670   -8.5080 ca        1 770     -0.060000
     24 C17        -1.0360    0.4630   -7.1200 ca        1 770     -0.036000
     25 C19        -1.4870   -0.2030   -8.2760 ca        1 770     -0.133400
     26 N3         -2.2680    0.5460   -9.2600 n4        1 770     -0.549200
     27 C21        -3.7070    0.6780   -8.8120 c         1 770      0.554900
     28 O3         -4.5670    0.3430   -9.6000 o         1 770     -0.385100
     29 H9          2.0630   -0.9470    2.0990 ha        1 770      0.159000
     30 H10         4.4020   -0.0900    2.1860 ha        1 770      0.151000
     31 H11         5.4770    0.8320    0.1270 ha        1 770      0.150000
     32 H12         4.2110    0.9030   -2.0150 ha        1 770      0.142000
     33 HN1        -0.0670    4.2960   -3.0880 hn        1 770      0.361500
     34 H1          2.1340   -2.0440   -2.8610 ha        1 770      0.171000
     35 HN2         1.0960   -3.0770   -5.2770 hn        1 770      0.328700
     36 H18        -0.2260   -3.3620   -7.7910 ha        1 770      0.174000
     37 H20        -1.5540   -2.0710   -9.4210 ha        1 770      0.156000
     38 H17        -1.2430    1.5330   -6.9240 ha        1 770      0.190000
     39 HN3        -2.2160    0.0740  -10.1730 hn        1 770      0.463800
     40 H21        -3.7940    1.0670   -7.7730 hx        1 770      0.143200
     41 H32        -1.8620    1.4870   -9.3570 hn        1 770      0.463800
@<TRIPOS>BOND
     1    1    2 1   
     2    2    3 ar  
     3    2    7 ar  
     4    3    4 ar  
     5    3   29 1   
     6    4    5 ar  
     7    4   30 1   
     8    5    6 ar  
     9    5   31 1   
    10    6    7 ar  
    11    6   32 1   
    12    7    8 1   
    13    8    9 ar  
    14    8   18 ar  
    15    9   10 1   
    16    9   13 ar  
    17   10   11 2   
    18   10   12 1   
    19   12   14 1   
    20   12   33 1   
    21   13   14 1   
    22   13   16 ar  
    23   14   15 2   
    24   16   17 ar  
    25   16   19 1   
    26   17   18 ar  
    27   17   21 1   
    28   18   34 1   
    29   19   20 ar  
    30   19   24 ar  
    31   20   21 1   
    32   20   22 ar  
    33   21   35 1   
    34   22   23 ar  
    35   22   36 1   
    36   23   25 ar  
    37   23   37 1   
    38   24   25 ar  
    39   24   38 1   
    40   25   26 1   
    41   26   27 1   
    42   26   39 1   
    43   26   41 1   
    44   27   28 2   
    45   27   40 1   
@<TRIPOS>SUBSTRUCTURE
     1 770         1 TEMP              0 ****  ****    0 ROOT
