@<TRIPOS>MOLECULE
770
   40    44     1     0     0
SMALL
bcc


@<TRIPOS>ATOM
      1 CL1         0.2790   -1.2330   -0.0440 cl        1 770     -0.088400
      2 C8          1.8480   -0.5780   -0.0180 ca        1 770      0.039400
      3 C9          2.5700   -0.6110    1.1800 ca        1 770     -0.126000
      4 C10         3.8570   -0.0810    1.2290 ca        1 770     -0.111000
      5 C11         4.4260    0.4820    0.0860 ca        1 770     -0.128000
      6 C12         3.7070    0.5170   -1.1060 ca        1 770     -0.093000
      7 C7          2.4110   -0.0110   -1.1730 cp        1 770     -0.047000
      8 C2          1.6820    0.0250   -2.4460 cp        1 770      0.058000
      9 C3          0.9850    1.1430   -2.8800 ca        1 770     -0.153600
     10 C6          0.7940    2.4850   -2.2380 c         1 770      0.726100
     11 O2          1.2140    2.9150   -1.1620 o         1 770     -0.568500
     12 N1          0.0000    3.2520   -3.1280 n         1 770     -0.624500
     13 C4          0.2820    1.1600   -4.1250 ca        1 770     -0.089600
     14 C5         -0.3370    2.5170   -4.2870 c         1 770      0.723100
     15 O1         -0.9990    2.9670   -5.2250 o         1 770     -0.566500
     16 C13         0.2700    0.0520   -4.9290 cp        1 770      0.000000
     17 C14         1.0260   -1.1160   -4.4770 ca        1 770     -0.000200
     18 C1          1.7060   -1.1250   -3.2650 ca        1 770     -0.142000
     19 C15        -0.3270   -0.3160   -6.2040 cp        1 770     -0.065000
     20 C16         0.1050   -1.6640   -6.4810 ca        1 770     -0.034200
     21 N2          0.9840   -2.1150   -5.4690 na        1 770     -0.175300
     22 C18        -0.3020   -2.3080   -7.6490 ca        1 770     -0.134000
     23 C20        -1.1370   -1.6210   -8.5240 ca        1 770     -0.141000
     24 C17        -1.1590    0.3590   -7.0810 ca        1 770     -0.073000
     25 C19        -1.5760   -0.3000   -8.2610 ca        1 770      0.030600
     26 N3         -2.4040    0.3360   -9.2050 n         1 770     -0.488100
     27 C21        -3.3210    1.3380   -8.9470 c         1 770      0.661900
     28 O3         -3.5270    1.8400   -7.8350 o         1 770     -0.567100
     29 H9          2.1180   -1.0500    2.0830 ha        1 770      0.149000
     30 H10         4.4220   -0.1040    2.1730 ha        1 770      0.139000
     31 H11         5.4400    0.9050    0.1270 ha        1 770      0.139000
     32 H12         4.1530    0.9710   -2.0050 ha        1 770      0.143000
     33 HN1        -0.2910    4.1800   -2.9540 hn        1 770      0.347500
     34 H1          2.2640   -2.0140   -2.9330 ha        1 770      0.153000
     35 HN2         1.0610   -3.0750   -5.2410 hn        1 770      0.288700
     36 H18         0.0220   -3.3320   -7.8800 ha        1 770      0.141000
     37 H20        -1.4580   -2.1350   -9.4450 ha        1 770      0.132000
     38 H17        -1.4970    1.3870   -6.8480 ha        1 770      0.200000
     39 HN3        -2.3940   -0.0580  -10.1180 hn        1 770      0.315500
     40 H21        -3.8640    1.6630   -9.8680 h5        1 770      0.030200
@<TRIPOS>BOND
     1    1    2 1   
     2    2    3 ar  
     3    2    7 ar  
     4    3    4 ar  
     5    3   29 1   
     6    4    5 ar  
     7    4   30 1   
     8    5    6 ar  
     9    5   31 1   
    10    6    7 ar  
    11    6   32 1   
    12    7    8 1   
    13    8    9 ar  
    14    8   18 ar  
    15    9   10 1   
    16    9   13 ar  
    17   10   11 2   
    18   10   12 1   
    19   12   14 1   
    20   12   33 1   
    21   13   14 1   
    22   13   16 ar  
    23   14   15 2   
    24   16   17 ar  
    25   16   19 1   
    26   17   18 ar  
    27   17   21 1   
    28   18   34 1   
    29   19   20 ar  
    30   19   24 ar  
    31   20   21 1   
    32   20   22 ar  
    33   21   35 1   
    34   22   23 ar  
    35   22   36 1   
    36   23   25 ar  
    37   23   37 1   
    38   24   25 ar  
    39   24   38 1   
    40   25   26 1   
    41   26   27 1   
    42   26   39 1   
    43   27   28 2   
    44   27   40 1   
@<TRIPOS>SUBSTRUCTURE
     1 770         1 TEMP              0 ****  ****    0 ROOT
