@<TRIPOS>MOLECULE
770
   40    31     1     0     0
SMALL
bcc


@<TRIPOS>ATOM
      1 CL1         5.1210    0.8160   -0.7280 cl        1 770     -0.007000
      2 C8          4.4380    0.7450    0.8750 c2        1 770     -0.038000
      3 C9          5.2700    0.7450    1.9840 c2        1 770     -0.126000
      4 C10         4.7260    0.7220    3.2580 c1        1 770     -0.110000
      5 C11         3.3490    0.6980    3.4240 c1        1 770     -0.111000
      6 C12         2.5180    0.6980    2.3160 c1        1 770     -0.111000
      7 C7          3.0620    0.7210    1.0410 c1        1 770     -0.049000
      8 C2          2.2300    0.7390   -0.0670 c1        1 770      0.004333
      9 C3          1.7970   -0.5690   -0.3400 c1        1 770     -0.104000
     10 C6          2.5240   -1.9080   -0.3290 c2        1 770      0.365500
     11 O2          3.7140   -2.0720   -0.1510 o         1 770     -0.303000
     12 N1          1.5690   -2.9320   -0.6180 n         1 770     -0.403000
     13 C4          0.4810   -0.8050   -0.6560 c1        1 770     -0.104000
     14 C5          0.2960   -2.3090   -0.8070 c2        1 770      0.365500
     15 O1         -0.7530   -2.8800   -1.0270 o         1 770     -0.303000
     16 C13        -0.4400    0.2720   -0.7070 c1        1 770      0.026000
     17 C14        -0.0160    1.5520   -0.4400 c1        1 770      0.026000
     18 C1          1.3300    1.7920   -0.1170 c1        1 770     -0.131667
     19 C15        -1.8130    0.3170   -0.9540 c1        1 770      0.004333
     20 C16        -2.2220    1.6240   -0.8370 c1        1 770      0.004333
     21 N2         -1.1140    2.3930   -0.5180 DU        1 770     -0.224000
     22 C18        -3.5740    1.9550   -1.0230 c1        1 770     -0.131667
     23 C20        -4.4970    0.9650   -1.3250 c1        1 770     -0.116000
     24 C17        -2.7470   -0.6860   -1.2600 c1        1 770     -0.131667
     25 C19        -4.0830   -0.3570   -1.4440 c1        1 770      0.042000
     26 N3         -4.6060   -1.6750   -1.3780 n         1 770     -0.333000
     27 C21        -5.9910   -1.9000   -1.5880 c2        1 770      0.268000
     28 O3         -6.7300   -0.9630   -1.8240 o         1 770     -0.351000
     29 H9          6.2390    0.7620    1.8670 ha        1 770      0.149000
     30 H10         5.3120    0.7220    4.0390 ha        1 770      0.139000
     31 H11         2.9660    0.6820    4.3220 ha        1 770      0.140500
     32 H12         1.5490    0.6810    2.4320 ha        1 770      0.140500
     33 HN1         1.7380   -3.8280   -0.6520 hn        1 770      0.261000
     34 H1          1.6330    2.7020    0.0650 ha        1 770      0.155667
     35 HN2        -1.1090    3.2950   -0.3840 DU        1 770      0.247000
     36 H18        -3.8650    2.8840   -0.9400 ha        1 770      0.155667
     37 H20        -5.4360    1.1950   -1.4550 ha        1 770      0.178000
     38 H17        -2.4570   -1.6130   -1.3430 ha        1 770      0.155667
     39 HN3        -4.0560   -2.3740   -1.1780 hn        1 770      0.236000
     40 H21        -6.3530   -2.8070   -1.5320 h5        1 770      0.125000
@<TRIPOS>BOND
     1    1    2 1   
     2    2    3 1   
     3    2    7 1   
     4    3    4 1   
     5    3   29 1   
     6    4   30 1   
     7    5    6 1   
     8    5   31 1   
     9    6   32 1   
    10    8   18 1   
    11    9   10 1   
    12    9   13 1   
    13   10   11 1   
    14   10   12 1   
    15   12   14 1   
    16   12   33 1   
    17   13   14 1   
    18   14   15 1   
    19   16   17 1   
    20   18   34 1   
    21   19   24 1   
    22   20   22 1   
    23   22   36 1   
    24   23   25 1   
    25   23   37 1   
    26   24   38 1   
    27   25   26 1   
    28   26   27 1   
    29   26   39 1   
    30   27   28 1   
    31   27   40 1   
@<TRIPOS>SUBSTRUCTURE
     1 770         1 TEMP              0 ****  ****    0 ROOT
