@<TRIPOS>MOLECULE
771
   59    61     1     0     0
SMALL
bcc


@<TRIPOS>ATOM
      1 C1         -0.6630   -1.9250   -1.2540 ce        1 771      0.638800
      2 N1          0.1990   -1.9470   -0.3260 n2        1 771     -0.682100
      3 N2         -1.3650   -3.1450   -1.8510 n4        1 771     -0.882600
      4 C2         -1.1510   -0.7250   -1.9620 ca        1 771     -0.269900
      5 C3         -0.3210   -0.0550   -2.8700 ca        1 771     -0.033000
      6 C4         -0.8520    0.9120   -3.7060 ca        1 771     -0.224500
      7 C5         -2.2390    1.2370   -3.6540 ca        1 771      0.227600
      8 N3         -2.7820    2.1080   -4.5770 nh        1 771     -0.737600
      9 C8         -4.1680    2.0580   -4.9730 c3        1 771      0.250100
     10 C15        -5.8170   -1.8490   -9.9440 c3        1 771      0.174700
     11 C16        -6.3980   -2.1580  -11.2830 ca        1 771     -0.108300
     12 C17        -6.1350   -1.3530  -12.3950 ca        1 771     -0.109500
     13 C18        -6.6680   -1.6890  -13.6390 ca        1 771     -0.128000
     14 C19        -7.4580   -2.8290  -13.7780 ca        1 771     -0.115000
     15 C21        -7.1980   -3.2990  -11.4220 ca        1 771     -0.109500
     16 C20        -7.7220   -3.6330  -12.6690 ca        1 771     -0.128000
     17 C9         -4.4530    1.3220   -6.2550 ca        1 771     -0.161300
     18 C13        -4.8090   -0.6970   -7.5800 ca        1 771     -0.261000
     19 C14        -4.3860   -0.0780   -6.3740 ca        1 771      0.162600
     20 N4         -3.9110   -0.8900   -5.3220 nh        1 771     -0.788500
     21 S1         -3.2260   -2.3460   -5.4830 s6        1 771      1.499900
     22 C22        -1.9510   -2.0920   -6.5610 c3        1 771     -0.384300
     23 O5         -2.6610   -2.7070   -4.2150 o         1 771     -0.693300
     24 O4         -4.0900   -3.3100   -6.0120 o         1 771     -0.693300
     25 C12        -5.2400    0.0730   -8.6540 ca        1 771      0.169100
     26 O3         -5.6500   -0.4200   -9.8640 os        1 771     -0.290900
     27 C10        -4.8780    2.0920   -7.3510 ca        1 771     -0.152000
     28 C11        -5.2580    1.4970   -8.5440 ca        1 771      0.105100
     29 O2         -5.6630    2.1650   -9.6760 os        1 771     -0.291900
     30 C23        -5.8210    3.5760   -9.5530 c3        1 771      0.105700
     31 C6         -3.0150    0.6660   -2.6050 ca        1 771     -0.224500
     32 C7         -2.4740   -0.3050   -1.7820 ca        1 771     -0.033000
     33 H1N         0.5120   -2.7890    0.1060 hn        1 771      0.448400
     34 H2N1       -2.3740   -2.9500   -1.9140 hn        1 771      0.463800
     35 H2N2       -1.0500   -3.2610   -2.8260 hn        1 771      0.463800
     36 H3          0.7500   -0.3070   -2.9340 ha        1 771      0.147000
     37 H4         -0.1910    1.4310   -4.4190 ha        1 771      0.159000
     38 HA         -2.1570    2.4410   -5.2810 hn        1 771      0.433800
     39 H8C1       -4.4980    3.1350   -5.0890 h1        1 771      0.072700
     40 H8C2       -4.7970    1.6130   -4.1510 h1        1 771      0.072700
     41 H151       -6.4980   -2.1920   -9.1190 h1        1 771      0.050700
     42 H152       -4.8090   -2.3350   -9.8350 h1        1 771      0.050700
     43 H17        -5.5190   -0.4480  -12.2800 ha        1 771      0.140000
     44 H18        -6.4630   -1.0500  -14.5120 ha        1 771      0.139000
     45 H19        -7.8750   -3.0940  -14.7610 ha        1 771      0.139000
     46 H21        -7.4140   -3.9310  -10.5480 ha        1 771      0.140000
     47 H20        -8.3480   -4.5320  -12.7770 ha        1 771      0.139000
     48 H13        -4.8350   -1.7970   -7.6590 ha        1 771      0.166000
     49 HB         -4.0260   -0.4800   -4.4200 hn        1 771      0.463800
     50 H221       -2.2440   -1.5360   -7.4900 h1        1 771      0.132367
     51 H222       -1.0930   -1.5270   -6.1210 h1        1 771      0.132367
     52 H223       -1.5320   -3.0680   -6.9210 h1        1 771      0.132367
     53 H10        -4.9170    3.1890   -7.2480 ha        1 771      0.153000
     54 H231       -6.2030    3.8760  -10.5630 h1        1 771      0.053033
     55 H232       -4.8380    4.0640   -9.3430 h1        1 771      0.053033
     56 H233       -6.5640    3.8250   -8.7580 h1        1 771      0.053033
     57 H6         -4.0440    1.0100   -2.4170 ha        1 771      0.159000
     58 H7         -3.0950   -0.7440   -0.9830 ha        1 771      0.147000
     59 H23        -1.2100   -4.0060   -1.3320 hn        1 771      0.463800
@<TRIPOS>BOND
     1    1    2 2   
     2    1    3 1   
     3    1    4 1   
     4    2   33 1   
     5    3   34 1   
     6    3   35 1   
     7    3   59 1   
     8    4    5 ar  
     9    4   32 ar  
    10    5    6 ar  
    11    5   36 1   
    12    6    7 ar  
    13    6   37 1   
    14    7    8 1   
    15    7   31 ar  
    16    8    9 1   
    17    8   38 1   
    18    9   17 1   
    19    9   39 1   
    20    9   40 1   
    21   10   11 1   
    22   10   26 1   
    23   10   41 1   
    24   10   42 1   
    25   11   12 ar  
    26   11   15 ar  
    27   12   13 ar  
    28   12   43 1   
    29   13   14 ar  
    30   13   44 1   
    31   14   16 ar  
    32   14   45 1   
    33   15   16 ar  
    34   15   46 1   
    35   16   47 1   
    36   17   19 ar  
    37   17   27 ar  
    38   18   19 ar  
    39   18   25 ar  
    40   18   48 1   
    41   19   20 1   
    42   20   21 1   
    43   20   49 1   
    44   21   22 1   
    45   21   23 2   
    46   21   24 2   
    47   22   50 1   
    48   22   51 1   
    49   22   52 1   
    50   25   26 1   
    51   25   28 ar  
    52   27   28 ar  
    53   27   53 1   
    54   28   29 1   
    55   29   30 1   
    56   30   54 1   
    57   30   55 1   
    58   30   56 1   
    59   31   32 ar  
    60   31   57 1   
    61   32   58 1   
@<TRIPOS>SUBSTRUCTURE
     1 771         1 TEMP              0 ****  ****    0 ROOT
