@<TRIPOS>MOLECULE
771
   59    61     1     0     0
SMALL
bcc


@<TRIPOS>ATOM
      1 C1         -0.6990   -1.9120   -1.2290 ce        1 771      0.638800
      2 N1          0.1640   -1.9420   -0.3020 n2        1 771     -0.682100
      3 N2         -1.4400   -3.1220   -1.8000 nz        1 771     -0.882600
      4 C2         -1.1480   -0.7130   -1.9620 ca        1 771     -0.269900
      5 C3         -0.2980   -0.0890   -2.8860 ca        1 771     -0.033000
      6 C4         -0.7990    0.8760   -3.7420 ca        1 771     -0.224500
      7 C5         -2.1750    1.2470   -3.6960 ca        1 771      0.227600
      8 N3         -2.6900    2.1150   -4.6370 nu        1 771     -0.737600
      9 C8         -4.0770    2.1020   -5.0310 c3        1 771      0.250100
     10 C15        -5.8620   -1.8570   -9.9150 c3        1 771      0.174700
     11 C16        -6.4550   -2.1740  -11.2460 ca        1 771     -0.108300
     12 C17        -6.1620   -1.4060  -12.3770 ca        1 771     -0.109500
     13 C18        -6.7080   -1.7510  -13.6130 ca        1 771     -0.128000
     14 C19        -7.5430   -2.8620  -13.7250 ca        1 771     -0.115000
     15 C21        -7.3000   -3.2850  -11.3580 ca        1 771     -0.109500
     16 C20        -7.8380   -3.6290  -12.5960 ca        1 771     -0.128000
     17 C9         -4.3880    1.3470   -6.2960 ca        1 771     -0.161300
     18 C13        -4.8100   -0.6860   -7.5780 ca        1 771     -0.261000
     19 C14        -4.3670   -0.0560   -6.3860 ca        1 771      0.162600
     20 N4         -3.9170   -0.8600   -5.3160 nu        1 771     -0.788500
     21 S1         -3.2800   -2.3410   -5.4470 s6        1 771      1.499900
     22 C22        -1.9980   -2.1510   -6.5300 c3        1 771     -0.384300
     23 O5         -2.7240   -2.6920   -4.1720 o         1 771     -0.693300
     24 O4         -4.1750   -3.2880   -5.9550 o         1 771     -0.693300
     25 C12        -5.2180    0.0730   -8.6680 ca        1 771      0.169100
     26 O3         -5.6450   -0.4320   -9.8670 os        1 771     -0.290900
     27 C10        -4.7890    2.1070   -7.4080 ca        1 771     -0.152000
     28 C11        -5.1900    1.4990   -8.5890 ca        1 771      0.105100
     29 O2         -5.5740    2.1550   -9.7340 os        1 771     -0.290900
     30 C23        -5.6860    3.5730   -9.6420 c3        1 771      0.105700
     31 C6         -2.9670    0.7240   -2.6350 ca        1 771     -0.224500
     32 C7         -2.4570   -0.2470   -1.7900 ca        1 771     -0.033000
     33 H1N         0.4500   -2.7850    0.1470 hn        1 771      0.448400
     34 H2N1       -1.1310   -3.2690   -2.7720 hn        1 771      0.463800
     35 H2N2       -1.3120   -3.9760   -1.2620 hn        1 771      0.463800
     36 H3          0.7640   -0.3770   -2.9440 ha        1 771      0.147000
     37 H4         -0.1220    1.3580   -4.4660 ha        1 771      0.159000
     38 HA         -2.0560    2.4120   -5.3480 hn        1 771      0.433800
     39 H8C1       -4.3730    3.1860   -5.1700 h1        1 771      0.072700
     40 H8C2       -4.7200    1.6950   -4.1990 h1        1 771      0.072700
     41 H151       -4.8710   -2.3740   -9.7970 h1        1 771      0.050700
     42 H152       -6.5520   -2.1570   -9.0820 h1        1 771      0.050700
     43 H17        -5.5100   -0.5240  -12.2830 ha        1 771      0.139500
     44 H18        -6.4790   -1.1420  -14.5000 ha        1 771      0.139000
     45 H19        -7.9710   -3.1340  -14.7010 ha        1 771      0.139000
     46 H21        -7.5400   -3.8870  -10.4690 ha        1 771      0.139500
     47 H20        -8.4980   -4.5040  -12.6830 ha        1 771      0.139000
     48 H13        -4.8720   -1.7870   -7.6330 ha        1 771      0.166000
     49 HB         -4.0170   -0.4270   -4.4230 hn        1 771      0.463800
     50 H221       -1.1220   -1.6050   -6.1040 h1        1 771      0.132367
     51 H222       -2.2740   -1.6060   -7.4710 h1        1 771      0.132367
     52 H223       -1.6120   -3.1480   -6.8710 h1        1 771      0.132367
     53 H10        -4.7930    3.2060   -7.3290 ha        1 771      0.153000
     54 H231       -6.0590    3.8640  -10.6580 h1        1 771      0.053033
     55 H232       -4.6870    4.0330   -9.4430 h1        1 771      0.053033
     56 H233       -6.4200    3.8630   -8.8520 h1        1 771      0.053033
     57 H6         -3.9840    1.1050   -2.4540 ha        1 771      0.159000
     58 H7         -3.0900   -0.6480   -0.9820 ha        1 771      0.147000
     59 H23        -2.4430   -2.8950   -1.8660 hn        1 771      0.463800
@<TRIPOS>BOND
     1    1    2 2   
     2    1    3 1   
     3    1    4 1   
     4    2   33 1   
     5    3   34 1   
     6    3   35 1   
     7    3   59 1   
     8    4    5 ar  
     9    4   32 ar  
    10    5    6 ar  
    11    5   36 1   
    12    6    7 ar  
    13    6   37 1   
    14    7    8 1   
    15    7   31 ar  
    16    8    9 1   
    17    8   38 1   
    18    9   17 1   
    19    9   39 1   
    20    9   40 1   
    21   10   11 1   
    22   10   26 1   
    23   10   41 1   
    24   10   42 1   
    25   11   12 ar  
    26   11   15 ar  
    27   12   13 ar  
    28   12   43 1   
    29   13   14 ar  
    30   13   44 1   
    31   14   16 ar  
    32   14   45 1   
    33   15   16 ar  
    34   15   46 1   
    35   16   47 1   
    36   17   19 ar  
    37   17   27 ar  
    38   18   19 ar  
    39   18   25 ar  
    40   18   48 1   
    41   19   20 1   
    42   20   21 1   
    43   20   49 1   
    44   21   22 1   
    45   21   23 2   
    46   21   24 2   
    47   22   50 1   
    48   22   51 1   
    49   22   52 1   
    50   25   26 1   
    51   25   28 ar  
    52   27   28 ar  
    53   27   53 1   
    54   28   29 1   
    55   29   30 1   
    56   30   54 1   
    57   30   55 1   
    58   30   56 1   
    59   31   32 ar  
    60   31   57 1   
    61   32   58 1   
@<TRIPOS>SUBSTRUCTURE
     1 771         1 TEMP              0 ****  ****    0 ROOT
