@<TRIPOS>MOLECULE
771
   58    51     1     0     0
SMALL
bcc


@<TRIPOS>ATOM
      1 C1          5.1460   -6.4810    0.2770 c1        1 771      0.133000
      2 N1          4.7760   -7.6120    0.8370 n1        1 771     -0.297000
      3 N2          6.4590   -6.3700   -0.3390 n2        1 771     -0.397000
      4 C2          4.2050   -5.2920    0.2780 c2        1 771     -0.099000
      5 C3          3.9340   -4.6200    1.4730 c2        1 771     -0.054000
      6 C4          3.0380   -3.5650    1.4870 c1        1 771     -0.196000
      7 C5          2.4030   -3.1700    0.3060 c1        1 771      0.066000
      8 N3          1.3360   -2.1840    0.3550 n3        1 771     -0.294000
      9 C8          1.2510   -1.1580   -0.6670 c3        1 771     -0.012000
     10 C15        -3.0800    3.6150    0.2000 c3        1 771      0.013000
     11 C16        -3.8620    4.7430    0.8070 c2        1 771     -0.089000
     12 C17        -4.4850    4.5720    2.0320 c2        1 771     -0.106000
     13 C18        -5.2540    5.5950    2.5670 c1        1 771     -0.132000
     14 C19        -5.3970    6.7870    1.8750 c1        1 771     -0.127500
     15 C21        -4.0070    5.9370    0.1160 c1        1 771     -0.122000
     16 C20        -4.7720    6.9560    0.6490 c1        1 771     -0.127500
     17 C9          0.3650    0.0030   -0.1630 c2        1 771     -0.157000
     18 C13        -1.7370    1.2040   -0.2190 c1        1 771     -0.251000
     19 C14        -0.9710    0.1050   -0.5910 c2        1 771      0.131000
     20 N4         -1.5770   -0.9770   -1.3290 n3        1 771     -0.837000
     21 S1         -1.7600   -0.8610   -2.9900 s4        1 771      2.049800
     22 C22        -1.9810   -2.4650   -3.6880 c2        1 771     -0.945000
     23 O5         -2.8520    0.0150   -3.3340 o         1 771     -0.542900
     24 O4         -0.6510   -0.1760   -3.5950 o         1 771     -0.542900
     25 C12        -1.1800    2.2060    0.5790 c1        1 771      0.100000
     26 O3         -2.0030    3.2570    1.0760 os        1 771     -0.206000
     27 C10         0.9180    1.0010    0.6320 c1        1 771     -0.082000
     28 C11         0.1520    2.1020    1.0040 c1        1 771      0.008000
     29 O2          0.6830    3.0570    1.9170 os        1 771     -0.213000
     30 C23         1.8590    3.7370    1.4310 c3        1 771     -0.077000
     31 C6          2.6710   -3.8360   -0.8780 c1        1 771     -0.194000
     32 C7          3.5780   -4.9040   -0.8910 c1        1 771     -0.074000
     33 H1N         5.3400   -8.3250    0.8380 DU        1 771      0.137000
     34 H2N1        7.0800   -7.0370   -0.2210 hn        1 771      0.192000
     35 H2N2        6.6860   -5.6050   -0.8110 hn        1 771      0.192000
     36 H3          4.3770   -4.8950    2.2970 ha        1 771      0.149000
     37 H4          2.8480   -3.0900    2.3350 ha        1 771      0.135000
     38 HA          0.7450   -2.1840    1.0510 hn        1 771      0.197000
     39 H8C1        0.8600   -1.5370   -1.4770 h1        1 771      0.089500
     40 H8C2        2.1540   -0.8190   -0.8650 h1        1 771      0.089500
     41 H151       -3.6660    2.8430    0.0710 h1        1 771      0.099500
     42 H152       -2.7220    3.8940   -0.6550 h1        1 771      0.099500
     43 H17        -4.3830    3.7250    2.5210 ha        1 771      0.149000
     44 H18        -5.6920    5.4760    3.4270 ha        1 771      0.133000
     45 H19        -5.9350    7.5040    2.2480 ha        1 771      0.132500
     46 H21        -3.5660    6.0590   -0.7540 ha        1 771      0.136000
     47 H20        -4.8730    7.7990    0.1600 ha        1 771      0.132500
     48 H13        -2.6760    1.2770   -0.5180 ha        1 771      0.179000
     49 HB         -1.9530   -1.6910   -0.8740 hn        1 771      0.263000
     50 H221       -1.6290   -2.4750   -4.5940 ha        1 771      0.159667
     51 H222       -2.9340   -2.6830   -3.7050 ha        1 771      0.159667
     52 H223       -1.5130   -3.1140   -3.1550 ha        1 771      0.159667
     53 H10         1.8560    0.9290    0.9320 ha        1 771      0.152000
     54 H231        2.6230    3.0890    1.3780 h1        1 771      0.085333
     55 H232        2.0920    4.4720    2.0480 h1        1 771      0.085333
     56 H233        1.6800    4.1040    0.5400 h1        1 771      0.085333
     57 H6          2.2290   -3.5610   -1.7010 ha        1 771      0.137000
     58 H7          3.7680   -5.3750   -1.7300 ha        1 771      0.143000
@<TRIPOS>BOND
     1    1    2 1   
     2    1    4 1   
     3    3   34 1   
     4    3   35 1   
     5    4    5 1   
     6    4   32 1   
     7    5    6 1   
     8    5   36 1   
     9    6   37 1   
    10    7    8 1   
    11    7   31 1   
    12    8    9 1   
    13    8   38 1   
    14    9   17 1   
    15    9   39 1   
    16    9   40 1   
    17   10   11 1   
    18   10   26 1   
    19   10   41 1   
    20   10   42 1   
    21   11   12 1   
    22   11   15 1   
    23   12   13 1   
    24   12   43 1   
    25   13   44 1   
    26   14   16 1   
    27   14   45 1   
    28   15   46 1   
    29   16   47 1   
    30   17   19 1   
    31   17   27 1   
    32   18   19 1   
    33   18   48 1   
    34   19   20 1   
    35   20   21 1   
    36   20   49 1   
    37   21   23 1   
    38   21   24 1   
    39   22   50 1   
    40   22   51 1   
    41   22   52 1   
    42   25   26 1   
    43   25   28 1   
    44   27   53 1   
    45   28   29 1   
    46   29   30 1   
    47   30   54 1   
    48   30   55 1   
    49   30   56 1   
    50   31   57 1   
    51   32   58 1   
@<TRIPOS>SUBSTRUCTURE
     1 771         1 TEMP              0 ****  ****    0 ROOT
