@<TRIPOS>MOLECULE
771
   61    62     1     0     0
SMALL
bcc


@<TRIPOS>ATOM
      1 C1         -0.6580    0.7980    0.5290 ce        1 771      0.590800
      2 N1          0.5370    0.3870    0.5900 n2        1 771     -0.637100
      3 N2         -1.4170    1.5250    1.6270 n4        1 771     -0.877600
      4 C2         -1.4900    0.6070   -0.6970 ca        1 771     -0.146900
      5 C3         -1.1010    1.2400   -1.8840 ca        1 771     -0.060500
      6 C4         -1.8020    0.9980   -3.0670 ca        1 771     -0.094500
      7 C5         -2.8920    0.1100   -3.0590 ca        1 771     -0.010400
      8 N3         -3.6420   -0.1370   -4.2960 n4        1 771     -0.649400
      9 C8         -2.8580   -0.9260   -5.3270 c3        1 771      0.191100
     10 C15        -6.4780   -1.6250  -10.7660 c3        1 771      0.188700
     11 C16        -7.2000   -1.0600  -11.9350 ca        1 771     -0.148300
     12 C17        -6.5450   -0.9210  -13.1640 ca        1 771     -0.093000
     13 C18        -7.2360   -0.4280  -14.2690 ca        1 771     -0.122500
     14 C19        -8.5800   -0.0700  -14.1500 ca        1 771     -0.080000
     15 C21        -8.5450   -0.6920  -11.8140 ca        1 771     -0.093000
     16 C20        -9.2330   -0.2020  -12.9230 ca        1 771     -0.122500
     17 C9         -3.5930   -0.9520   -6.6240 ca        1 771     -0.207300
     18 C13        -4.8810   -1.9800   -8.4220 ca        1 771     -0.281000
     19 C14        -4.1450   -2.0980   -7.2160 ca        1 771      0.076600
     20 N4         -3.9500   -3.4210   -6.7000 nh        1 771     -0.886200
     21 S1         -2.0380   -4.5950   -7.6230 s4        1 771      1.649500
     22 C22        -2.1800   -4.1730   -9.1500 c3        1 771     -0.582800
     23 O5         -1.2170   -3.8600   -6.8380 o         1 771     -0.407900
     24 O4         -2.5790   -5.7680   -7.2390 o         1 771     -0.407900
     25 C12        -5.0370   -0.7480   -9.0530 ca        1 771      0.224100
     26 O3         -5.7300   -0.5160  -10.1840 os        1 771     -0.258900
     27 C10        -3.6970    0.2910   -7.2960 ca        1 771     -0.208000
     28 C11        -4.3900    0.4140   -8.4860 ca        1 771      0.151100
     29 O2         -4.5510    1.5540   -9.2140 os        1 771     -0.258900
     30 C23        -3.8890    2.7320   -8.7490 c3        1 771      0.098700
     31 C6         -3.2830   -0.5240   -1.8650 ca        1 771     -0.094500
     32 C7         -2.5770   -0.2730   -0.6880 ca        1 771     -0.060500
     33 H1N         1.1440    0.4830    1.3790 hn        1 771      0.495400
     34 H2N1       -2.3480    1.1090    1.7370 hn        1 771      0.472467
     35 H2N2       -0.9290    1.4780    2.5310 hn        1 771      0.472467
     36 H3         -0.2290    1.9190   -1.9040 ha        1 771      0.186500
     37 H4         -1.4780    1.5100   -3.9900 ha        1 771      0.180500
     38 HA         -4.5120   -0.6380   -4.0760 hn        1 771      0.465800
     39 H8C1       -1.8650   -0.4010   -5.4560 hx        1 771      0.109200
     40 H8C2       -2.6540   -1.9400   -4.8860 hx        1 771      0.109200
     41 H151       -7.1830   -2.0230   -9.9890 h1        1 771      0.049700
     42 H152       -5.7400   -2.4120  -11.0730 h1        1 771      0.049700
     43 H17        -5.4850   -1.2000  -13.2590 ha        1 771      0.130000
     44 H18        -6.7220   -0.3230  -15.2370 ha        1 771      0.155500
     45 H19        -9.1270    0.3170  -15.0260 ha        1 771      0.160000
     46 H21        -9.0630   -0.7930  -10.8490 ha        1 771      0.130000
     47 H20       -10.2940    0.0810  -12.8310 ha        1 771      0.155500
     48 H13        -5.3810   -2.8640   -8.8550 ha        1 771      0.167000
     49 HB         -3.7990   -3.4130   -5.7060 hn        1 771      0.412800
     50 H221       -2.5100   -4.9990   -9.8600 h1        1 771      0.216033
     51 H222       -2.9230   -3.3400   -9.3760 h1        1 771      0.216033
     52 H223       -1.2340   -3.7790   -9.6440 h1        1 771      0.216033
     53 H10        -3.1870    1.1740   -6.8780 ha        1 771      0.145000
     54 H231       -2.7840    2.5750   -8.7140 h1        1 771      0.067700
     55 H232       -4.1600    3.4890   -9.5340 h1        1 771      0.067700
     56 H233       -4.2870    3.0360   -7.7520 h1        1 771      0.067700
     57 H6         -4.1380   -1.2240   -1.8310 ha        1 771      0.180500
     58 H7         -2.8780   -0.8010    0.2340 ha        1 771      0.186500
     59 H23        -1.5270    2.5130    1.3680 hn        1 771      0.472467
     60 H32        -3.9020    0.7710   -4.7140 hn        1 771      0.465800
     61 H42        -4.7590   -3.9980   -6.8920 hn        1 771      0.412800
@<TRIPOS>BOND
     1    1    2 2   
     2    1    3 1   
     3    1    4 1   
     4    2   33 1   
     5    3   34 1   
     6    3   35 1   
     7    3   59 1   
     8    4    5 ar  
     9    4   32 ar  
    10    5    6 ar  
    11    5   36 1   
    12    6    7 ar  
    13    6   37 1   
    14    7    8 1   
    15    7   31 ar  
    16    8    9 1   
    17    8   38 1   
    18    8   60 1   
    19    9   17 1   
    20    9   39 1   
    21    9   40 1   
    22   10   11 1   
    23   10   26 1   
    24   10   41 1   
    25   10   42 1   
    26   11   12 ar  
    27   11   15 ar  
    28   12   13 ar  
    29   12   43 1   
    30   13   14 ar  
    31   13   44 1   
    32   14   16 ar  
    33   14   45 1   
    34   15   16 ar  
    35   15   46 1   
    36   16   47 1   
    37   17   19 ar  
    38   17   27 ar  
    39   18   19 ar  
    40   18   25 ar  
    41   18   48 1   
    42   19   20 1   
    43   20   49 1   
    44   20   61 1   
    45   21   22 1   
    46   21   23 1   
    47   21   24 1   
    48   22   50 1   
    49   22   51 1   
    50   22   52 1   
    51   25   26 1   
    52   25   28 ar  
    53   27   28 ar  
    54   27   53 1   
    55   28   29 1   
    56   29   30 1   
    57   30   54 1   
    58   30   55 1   
    59   30   56 1   
    60   31   32 ar  
    61   31   57 1   
    62   32   58 1   
@<TRIPOS>SUBSTRUCTURE
     1 771         1 TEMP              0 ****  ****    0 ROOT
