@<TRIPOS>MOLECULE
771
   58    60     1     0     0
SMALL
bcc


@<TRIPOS>ATOM
      1 C1          0.5350    0.5090   -8.2430 ce        1 771      0.656800
      2 N1          0.9290    1.6390   -8.7490 n2        1 771     -0.830100
      3 N2          0.2530   -0.6870   -8.9420 nh        1 771     -0.957800
      4 C2          0.4250    0.3920   -6.7560 ca        1 771     -0.179900
      5 C3         -0.2520    1.3760   -6.0270 ca        1 771     -0.064000
      6 C4         -0.3590    1.2790   -4.6460 ca        1 771     -0.191500
      7 C5          0.2130    0.1850   -3.9520 ca        1 771      0.142600
      8 N3          0.0030    0.0520   -2.5680 nh        1 771     -0.730600
      9 C8          0.9750   -0.7170   -1.8130 c3        1 771      0.231100
     10 C15        -0.2330   -0.2320    4.5770 c3        1 771      0.168700
     11 C16         0.0660    0.0630    6.0090 ca        1 771     -0.095300
     12 C17         1.3660    0.3000    6.4620 ca        1 771     -0.113000
     13 C18         1.5990    0.5490    7.8140 ca        1 771     -0.132000
     14 C19         0.5370    0.5590    8.7180 ca        1 771     -0.126000
     15 C21        -1.0010    0.0780    6.9170 ca        1 771     -0.113000
     16 C20        -0.7630    0.3230    8.2680 ca        1 771     -0.132000
     17 C9          0.8830   -0.4860   -0.3320 ca        1 771     -0.146300
     18 C13        -0.2970   -0.5970    1.7990 ca        1 771     -0.232000
     19 C14        -0.2830   -0.7990    0.3960 ca        1 771      0.181600
     20 N4         -1.4170   -1.3220   -0.2480 nh        1 771     -0.775500
     21 S1         -2.9820   -1.0160    0.0750 s6        1 771      1.469900
     22 C22        -3.2110    0.5570   -0.5260 c3        1 771     -0.371300
     23 O5         -3.7630   -1.9050   -0.6900 o         1 771     -0.652300
     24 O4         -3.2330   -0.9870    1.4600 o         1 771     -0.652300
     25 C12         0.8210   -0.0800    2.4450 ca        1 771      0.147100
     26 O3          0.9010    0.1780    3.7930 os        1 771     -0.302900
     27 C10         2.0090    0.0230    0.3290 ca        1 771     -0.151000
     28 C11         1.9950    0.2320    1.7020 ca        1 771      0.085100
     29 O2          3.0480    0.7260    2.4430 os        1 771     -0.301900
     30 C23         4.2180    1.0710    1.7100 c3        1 771      0.108700
     31 C6          0.9120   -0.7900   -4.7000 ca        1 771     -0.191500
     32 C7          1.0100   -0.6830   -6.0830 ca        1 771     -0.064000
     33 H1N         0.9890    1.6850   -9.7440 hn        1 771      0.381400
     34 H2N1        0.0040   -0.5950   -9.8990 hn        1 771      0.397800
     35 H2N2       -0.2900   -1.3520   -8.4420 hn        1 771      0.397800
     36 H3         -0.6940    2.2400   -6.5480 ha        1 771      0.146500
     37 H4         -0.8960    2.0660   -4.0940 ha        1 771      0.134500
     38 HA         -0.2270    0.9220   -2.1280 hn        1 771      0.394800
     39 H8C1        2.0290   -0.4970   -2.1600 h1        1 771      0.048200
     40 H8C2        0.7860   -1.8110   -2.0300 h1        1 771      0.048200
     41 H151       -1.1400    0.3370    4.2350 h1        1 771      0.057200
     42 H152       -0.4020   -1.3340    4.4350 h1        1 771      0.057200
     43 H17         2.2030    0.2950    5.7450 ha        1 771      0.144500
     44 H18         2.6230    0.7370    8.1660 ha        1 771      0.132000
     45 H19         0.7220    0.7530    9.7850 ha        1 771      0.131000
     46 H21        -2.0260   -0.1040    6.5630 ha        1 771      0.144500
     47 H20        -1.6020    0.3320    8.9790 ha        1 771      0.132000
     48 H13        -1.1990   -0.8530    2.3810 ha        1 771      0.182000
     49 HB         -1.1900   -1.8680   -1.0530 hn        1 771      0.466800
     50 H221       -4.3040    0.8000   -0.5720 h1        1 771      0.118033
     51 H222       -2.7440    1.3450    0.1130 h1        1 771      0.118033
     52 H223       -2.8190    0.7080   -1.5620 h1        1 771      0.118033
     53 H10         2.9110    0.2570   -0.2570 ha        1 771      0.145000
     54 H231        4.9130    1.4540    2.5000 h1        1 771      0.045700
     55 H232        4.6500    0.1700    1.2090 h1        1 771      0.045700
     56 H233        3.9960    1.8680    0.9600 h1        1 771      0.045700
     57 H6          1.3820   -1.6480   -4.1980 ha        1 771      0.134500
     58 H7          1.5690   -1.4500   -6.6430 ha        1 771      0.146500
@<TRIPOS>BOND
     1    1    2 2   
     2    1    3 1   
     3    1    4 1   
     4    2   33 1   
     5    3   34 1   
     6    3   35 1   
     7    4    5 ar  
     8    4   32 ar  
     9    5    6 ar  
    10    5   36 1   
    11    6    7 ar  
    12    6   37 1   
    13    7    8 1   
    14    7   31 ar  
    15    8    9 1   
    16    8   38 1   
    17    9   17 1   
    18    9   39 1   
    19    9   40 1   
    20   10   11 1   
    21   10   26 1   
    22   10   41 1   
    23   10   42 1   
    24   11   12 ar  
    25   11   15 ar  
    26   12   13 ar  
    27   12   43 1   
    28   13   14 ar  
    29   13   44 1   
    30   14   16 ar  
    31   14   45 1   
    32   15   16 ar  
    33   15   46 1   
    34   16   47 1   
    35   17   19 ar  
    36   17   27 ar  
    37   18   19 ar  
    38   18   25 ar  
    39   18   48 1   
    40   19   20 1   
    41   20   21 1   
    42   20   49 1   
    43   21   22 1   
    44   21   23 2   
    45   21   24 2   
    46   22   50 1   
    47   22   51 1   
    48   22   52 1   
    49   25   26 1   
    50   25   28 ar  
    51   27   28 ar  
    52   27   53 1   
    53   28   29 1   
    54   29   30 1   
    55   30   54 1   
    56   30   55 1   
    57   30   56 1   
    58   31   32 ar  
    59   31   57 1   
    60   32   58 1   
@<TRIPOS>SUBSTRUCTURE
     1 771         1 TEMP              0 ****  ****    0 ROOT
