@<TRIPOS>MOLECULE
772
   22    22     1     0     0
SMALL
bcc


@<TRIPOS>ATOM
      1 C1          0.2050    0.1750   -0.0460 ca        1 772     -0.053000
      2 C2          1.5680   -0.2010   -0.0440 ca        1 772     -0.335000
      3 C3          2.2900   -0.1550    1.1330 ca        1 772     -0.028300
      4 C4          1.6810    0.2730    2.3850 ca        1 772      0.219600
      5 C5          0.2460    0.6670    2.3720 ca        1 772      0.548400
      6 C6         -0.4270    0.5850    1.0840 ca        1 772     -0.293000
      7 C7          3.6730   -0.5270    1.1800 ca        1 772     -0.205000
      8 C8          4.3610   -0.4720    2.3600 ca        1 772     -0.174300
      9 C9          3.6750   -0.0380    3.5370 ca        1 772      0.285300
     10 N10         2.3710    0.3230    3.5410 nb        1 772     -0.528000
     11 O11        -0.3680    1.0500    3.3950 o         1 772     -0.690700
     12 P12        -2.6000    1.8150    4.1090 p4        1 772      1.546300
     13 O13        -2.2360    3.1630    4.5900 o         1 772     -0.836167
     14 O14        -2.9020    0.7550    5.0930 o         1 772     -0.836167
     15 C15         4.4240    0.0070    4.7470 cg        1 772      0.210800
     16 N16         5.0740    0.0290    5.7140 n1        1 772     -0.504800
     17 O17        -3.0660    1.6530    2.7130 o         1 772     -0.884967
     18 H1         -0.3440    0.1280   -1.0000 ha        1 772      0.084000
     19 H2          2.0440   -0.5260   -0.9760 ha        1 772      0.089000
     20 H6         -1.4920    0.8800    1.0890 ha        1 772      0.186000
     21 H7          4.1590   -0.8550    0.2520 ha        1 772      0.099000
     22 H8          5.4210   -0.7510    2.4260 ha        1 772      0.099000
@<TRIPOS>BOND
     1    1    2 ar  
     2    1    6 ar  
     3    1   18 1   
     4    2    3 ar  
     5    2   19 1   
     6    3    4 ar  
     7    3    7 ar  
     8    4    5 ar  
     9    4   10 ar  
    10    5    6 ar  
    11    5   11 1   
    12    6   20 1   
    13    7    8 ar  
    14    7   21 1   
    15    8    9 ar  
    16    8   22 1   
    17    9   10 ar  
    18    9   15 1   
    19   12   13 1   
    20   12   14 1   
    21   12   17 2   
    22   15   16 3   
@<TRIPOS>SUBSTRUCTURE
     1 772         1 TEMP              0 ****  ****    0 ROOT
