@<TRIPOS>MOLECULE
772
   22    22     1     0     0
SMALL
bcc


@<TRIPOS>ATOM
      1 C1          0.1310    0.1270   -0.0400 ca        1 772     -0.053000
      2 C2          1.4950   -0.2410   -0.0590 ca        1 772     -0.335000
      3 C3          2.2350   -0.1870    1.1070 ca        1 772     -0.028300
      4 C4          1.6450    0.2430    2.3670 ca        1 772      0.219600
      5 C5          0.2080    0.6290    2.3740 ca        1 772      0.548400
      6 C6         -0.4860    0.5390    1.0990 ca        1 772     -0.293000
      7 C7          3.6210   -0.5520    1.1340 ca        1 772     -0.205000
      8 C8          4.3280   -0.4890    2.3030 ca        1 772     -0.174300
      9 C9          3.6580   -0.0540    3.4880 ca        1 772      0.285300
     10 N10         2.3520    0.3010    3.5110 nb        1 772     -0.528000
     11 O11        -0.3930    1.0140    3.4060 o         1 772     -0.690700
     12 P12        -2.6170    1.7710    4.1520 p4        1 772      1.546300
     13 O13        -2.2520    3.1240    4.6210 o         1 772     -0.836167
     14 O14        -2.8970    0.7150    5.1460 o         1 772     -0.836167
     15 C15         4.4260   -0.0010    4.6860 cg        1 772      0.210800
     16 N16         5.0910    0.0280    5.6430 n1        1 772     -0.504800
     17 O17        -3.1040    1.5990    2.7640 o         1 772     -0.884967
     18 H1         -0.4330    0.0740   -0.9850 ha        1 772      0.084000
     19 H2          1.9580   -0.5680   -0.9960 ha        1 772      0.089000
     20 H6         -1.5520    0.8280    1.1190 ha        1 772      0.186000
     21 H7          4.0940   -0.8810    0.1990 ha        1 772      0.099000
     22 H8          5.3890   -0.7620    2.3530 ha        1 772      0.099000
@<TRIPOS>BOND
     1    1    2 ar  
     2    1    6 ar  
     3    1   18 1   
     4    2    3 ar  
     5    2   19 1   
     6    3    4 ar  
     7    3    7 ar  
     8    4    5 ar  
     9    4   10 ar  
    10    5    6 ar  
    11    5   11 1   
    12    6   20 1   
    13    7    8 ar  
    14    7   21 1   
    15    8    9 ar  
    16    8   22 1   
    17    9   10 ar  
    18    9   15 1   
    19   12   13 1   
    20   12   14 1   
    21   12   17 2   
    22   15   16 3   
@<TRIPOS>SUBSTRUCTURE
     1 772         1 TEMP              0 ****  ****    0 ROOT
