@<TRIPOS>MOLECULE
772
   22    22     1     0     0
SMALL
bcc


@<TRIPOS>ATOM
      1 C1         -3.0100   -0.0600    0.4520 ca        1 772     -0.053000
      2 C2         -3.0160   -0.0560   -0.9620 ca        1 772     -0.335000
      3 C3         -1.8200   -0.0100   -1.6520 ca        1 772     -0.028300
      4 C4         -0.5400    0.0350   -0.9590 ca        1 772      0.219600
      5 C5         -0.5450    0.0310    0.5290 ca        1 772      0.548400
      6 C6         -1.8540   -0.0190    1.1640 ca        1 772     -0.293000
      7 C7         -1.7800   -0.0050   -3.0850 ca        1 772     -0.205000
      8 C8         -0.5810    0.0410   -3.7400 ca        1 772     -0.174300
      9 C9          0.6220    0.0830   -2.9700 ca        1 772      0.285300
     10 N10         0.6340    0.0800   -1.6170 nb        1 772     -0.528000
     11 O11         0.5020    0.0680    1.2180 o         1 772     -0.690700
     12 P12         1.2420    0.0880    3.5690 p4        1 772      1.546300
     13 O13         1.9430    1.3900    3.5760 o         1 772     -0.836167
     14 O14         2.0370   -1.1580    3.5690 o         1 772     -0.836167
     15 C15         1.8520    0.1310   -3.6870 cg        1 772      0.210800
     16 N16         2.8340    0.1680   -4.3130 n1        1 772     -0.504800
     17 O17        -0.1780    0.0350    3.9830 o         1 772     -0.884967
     18 H1         -3.9790   -0.0970    0.9740 ha        1 772      0.084000
     19 H2         -3.9690   -0.0900   -1.5020 ha        1 772      0.089000
     20 H6         -1.8420   -0.0220    2.2690 ha        1 772      0.186000
     21 H7         -2.7290   -0.0390   -3.6350 ha        1 772      0.099000
     22 H8         -0.5200    0.0460   -4.8360 ha        1 772      0.099000
@<TRIPOS>BOND
     1    1    2 ar  
     2    1    6 ar  
     3    1   18 1   
     4    2    3 ar  
     5    2   19 1   
     6    3    4 ar  
     7    3    7 ar  
     8    4    5 ar  
     9    4   10 ar  
    10    5    6 ar  
    11    5   11 1   
    12    6   20 1   
    13    7    8 ar  
    14    7   21 1   
    15    8    9 ar  
    16    8   22 1   
    17    9   10 ar  
    18    9   15 1   
    19   12   13 1   
    20   12   14 1   
    21   12   17 2   
    22   15   16 3   
@<TRIPOS>SUBSTRUCTURE
     1 772         1 TEMP              0 ****  ****    0 ROOT
