@<TRIPOS>MOLECULE
772
   22    22     1     0     0
SMALL
bcc


@<TRIPOS>ATOM
      1 C1          0.2170    0.1700   -0.0510 ca        1 772     -0.053000
      2 C2          1.5720   -0.2320   -0.0360 ca        1 772     -0.335000
      3 C3          2.2870   -0.1870    1.1460 ca        1 772     -0.028300
      4 C4          1.6790    0.2670    2.3890 ca        1 772      0.219600
      5 C5          0.2520    0.6880    2.3610 ca        1 772      0.548400
      6 C6         -0.4150    0.6050    1.0710 ca        1 772     -0.293000
      7 C7          3.6620   -0.5860    1.2060 ca        1 772     -0.205000
      8 C8          4.3440   -0.5300    2.3900 ca        1 772     -0.174300
      9 C9          3.6590   -0.0700    3.5570 ca        1 772      0.285300
     10 N10         2.3620    0.3160    3.5490 nb        1 772     -0.528000
     11 O11        -0.3620    1.0940    3.3760 o         1 772     -0.690700
     12 P12        -2.5840    1.9090    4.0670 p4        1 772      1.546300
     13 O13        -2.1970    3.2560    4.5370 o         1 772     -0.836167
     14 O14        -2.9120    0.8660    5.0600 o         1 772     -0.836167
     15 C15         4.4010   -0.0260    4.7720 cg        1 772      0.210800
     16 N16         5.0450   -0.0060    5.7430 n1        1 772     -0.504800
     17 O17        -3.0430    1.7410    2.6700 o         1 772     -0.884967
     18 H1         -0.3270    0.1230   -1.0080 ha        1 772      0.084000
     19 H2          2.0480   -0.5770   -0.9600 ha        1 772      0.089000
     20 H6         -1.4740    0.9200    1.0650 ha        1 772      0.186000
     21 H7          4.1470   -0.9320    0.2850 ha        1 772      0.099000
     22 H8          5.3970   -0.8290    2.4660 ha        1 772      0.099000
@<TRIPOS>BOND
     1    1    2 ar  
     2    1    6 ar  
     3    1   18 1   
     4    2    3 ar  
     5    2   19 1   
     6    3    4 ar  
     7    3    7 ar  
     8    4    5 ar  
     9    4   10 ar  
    10    5    6 ar  
    11    5   11 1   
    12    6   20 1   
    13    7    8 ar  
    14    7   21 1   
    15    8    9 ar  
    16    8   22 1   
    17    9   10 ar  
    18    9   15 1   
    19   12   13 1   
    20   12   14 1   
    21   12   17 2   
    22   15   16 3   
@<TRIPOS>SUBSTRUCTURE
     1 772         1 TEMP              0 ****  ****    0 ROOT
