@<TRIPOS>MOLECULE
772
   22    19     1     0     0
SMALL
bcc


@<TRIPOS>ATOM
      1 C1         -1.2530   -0.6310   -2.3340 c1        1 772     -0.173000
      2 C2          0.1350   -0.6540   -2.3510 c1        1 772     -0.335000
      3 C3          0.8590   -0.3200   -1.1900 c1        1 772      0.037000
      4 C4          0.1900    0.0290   -0.0400 c1        1 772     -0.174000
      5 C5         -1.2170    0.0520   -0.0250 c1        1 772      0.334000
      6 C6         -1.9300   -0.2780   -1.1700 c1        1 772     -0.173000
      7 C7          2.2460   -0.3480   -1.2030 c2        1 772     -0.205000
      8 C8          2.9460   -0.0280   -0.0730 c1        1 772     -0.109000
      9 C9          2.2670    0.3250    1.0900 c1        1 772     -0.150000
     10 N10         0.9020    0.3520    1.1030 n2        1 772     -0.002000
     11 O11        -1.5100   -0.2210    1.3230 os        1 772     -0.411000
     12 P12        -2.7280    0.5310    1.9970 p5        1 772      1.497500
     13 O13        -2.2370    1.3130    3.1920 o         1 772     -0.836167
     14 O14        -3.3510    1.4770    0.9980 o         1 772     -0.836167
     15 C15         2.7630    0.5710    2.4980 c1        1 772     -0.008000
     16 N16         3.1370    0.7560    3.5590 n1        1 772     -0.179000
     17 O17        -3.7580   -0.4790    2.4440 o         1 772     -0.836167
     18 H1         -1.7640   -0.6980   -3.1620 ha        1 772      0.135000
     19 H2          0.5530   -0.8170   -3.2180 ha        1 772      0.089000
     20 H6         -2.8910   -0.2510   -1.3490 ha        1 772      0.135000
     21 H7          2.7200   -0.6330   -2.0070 ha        1 772      0.099000
     22 H8          3.9210   -0.0480   -0.0810 ha        1 772      0.099000
@<TRIPOS>BOND
     1    1    6 1   
     2    1   18 1   
     3    2    3 1   
     4    2   19 1   
     5    3    7 1   
     6    4    5 1   
     7    4   10 1   
     8    5   11 1   
     9    6   20 1   
    10    7    8 1   
    11    7   21 1   
    12    8   22 1   
    13    9   10 1   
    14    9   15 1   
    15   11   12 1   
    16   12   13 1   
    17   12   14 1   
    18   12   17 1   
    19   15   16 1   
@<TRIPOS>SUBSTRUCTURE
     1 772         1 TEMP              0 ****  ****    0 ROOT
