@<TRIPOS>MOLECULE
775
   40    42     1     0     0
SMALL
bcc


@<TRIPOS>ATOM
      1 C1          0.0600   -0.1340   -0.0560 c3        1 775     -0.096100
      2 C2          1.5620   -0.2570    0.0050 c3        1 775     -0.081400
      3 C3          2.0720    0.0520    1.3990 c3        1 775     -0.060200
      4 C4          3.5720    0.0600    1.4670 cc        1 775      0.183800
      5 C5          4.2610    1.1940    1.7940 cd        1 775     -0.324200
      6 C6          5.7240    1.2580    1.8840 c         1 775      0.630500
      7 O7          6.3680    2.2680    2.1800 o         1 775     -0.548500
      8 N8          6.3840    0.0120    1.5940 n         1 775      0.084300
      9 N9          7.7120   -0.2430    1.5880 nc        1 775     -0.526800
     10 C10         7.8640   -1.5650    1.2360 cd        1 775      0.599200
     11 N11         9.0650   -2.2230    1.0040 nh        1 775     -0.810900
     12 C12        10.2810   -1.6200    1.5170 c3        1 775      0.233100
     13 C13        11.4740   -2.5180    1.3780 ca        1 775     -0.108300
     14 C14        11.8130   -3.0610    0.1340 ca        1 775     -0.106500
     15 C15        12.9420   -3.8670    0.0020 ca        1 775     -0.127000
     16 C16        13.7390   -4.1280    1.1210 ca        1 775      0.022400
     17 CL1        15.1180   -5.1080    0.9660 cl        1 775     -0.091400
     18 C18        13.4090   -3.5870    2.3680 ca        1 775     -0.127000
     19 C19        12.2750   -2.7870    2.4920 ca        1 775     -0.106500
     20 C20         6.5480   -2.1890    1.0250 cd        1 775     -0.284300
     21 C21         6.2790   -3.5070    0.6680 ch        1 775      0.272800
     22 N22         6.0580   -4.6120    0.3710 n1        1 775     -0.386800
     23 C23         5.6250   -1.1420    1.2580 cc        1 775      0.196300
     24 N24         4.2440   -1.1290    1.2080 na        1 775     -0.602400
     25 H1         -0.4240   -0.8370    0.6640 hc        1 775      0.041700
     26 H2         -0.2630    0.9050    0.1960 hc        1 775      0.041700
     27 H3         -0.3020   -0.3760   -1.0850 hc        1 775      0.041700
     28 H4          1.8630   -1.2960   -0.2940 hc        1 775      0.048200
     29 H5          2.0290    0.4500   -0.7320 hc        1 775      0.048200
     30 H6          1.6670   -0.7010    2.1290 hc        1 775      0.073200
     31 H7          1.6960    1.0610    1.7200 hc        1 775      0.073200
     32 H8          3.7440    2.1390    2.0090 ha        1 775      0.182000
     33 H10         9.0000   -3.2120    1.1350 hn        1 775      0.418800
     34 H11        10.4640   -0.6750    0.9240 h1        1 775      0.064700
     35 H12        10.1620   -1.3180    2.6000 h1        1 775      0.064700
     36 H13        11.1880   -2.8490   -0.7470 ha        1 775      0.145500
     37 H14        13.2040   -4.2930   -0.9790 ha        1 775      0.149500
     38 H15        14.0380   -3.7920    3.2480 ha        1 775      0.149500
     39 H16        12.0160   -2.3620    3.4740 ha        1 775      0.145500
     40 H9          3.7610   -1.9530    0.9300 hn        1 775      0.478800
@<TRIPOS>BOND
     1    1    2 1   
     2    1   25 1   
     3    1   26 1   
     4    1   27 1   
     5    2    3 1   
     6    2   28 1   
     7    2   29 1   
     8    3    4 1   
     9    3   30 1   
    10    3   31 1   
    11    4    5 2   
    12    4   24 1   
    13    5    6 1   
    14    5   32 1   
    15    6    7 2   
    16    6    8 1   
    17    8    9 1   
    18    8   23 1   
    19    9   10 2   
    20   10   11 1   
    21   10   20 1   
    22   11   12 1   
    23   11   33 1   
    24   12   13 1   
    25   12   34 1   
    26   12   35 1   
    27   13   14 ar  
    28   13   19 ar  
    29   14   15 ar  
    30   14   36 1   
    31   15   16 ar  
    32   15   37 1   
    33   16   17 1   
    34   16   18 ar  
    35   18   19 ar  
    36   18   38 1   
    37   19   39 1   
    38   20   21 1   
    39   20   23 2   
    40   21   22 3   
    41   23   24 1   
    42   24   40 1   
@<TRIPOS>SUBSTRUCTURE
     1 775         1 TEMP              0 ****  ****    0 ROOT
