@<TRIPOS>MOLECULE
775
   40    42     1     0     0
SMALL
bcc


@<TRIPOS>ATOM
      1 C1          0.0690   -0.0160   -0.1190 c3        1 775     -0.096100
      2 C2          1.5680   -0.1540   -0.0360 c3        1 775     -0.081400
      3 C3          2.0550    0.0940    1.3790 c3        1 775     -0.060200
      4 C4          3.5530    0.0860    1.4740 cc        1 775      0.183800
      5 C5          4.2450    1.2000    1.8600 cd        1 775     -0.324200
      6 C6          5.7060    1.2470    1.9790 c         1 775      0.630500
      7 O7          6.3530    2.2390    2.3270 o         1 775     -0.548500
      8 N8          6.3620    0.0090    1.6510 n         1 775      0.084300
      9 N9          7.6870   -0.2570    1.6580 nc        1 775     -0.526800
     10 C10         7.8350   -1.5650    1.2560 cd        1 775      0.599200
     11 N11         9.0350   -2.2240    1.0190 nu        1 775     -0.810900
     12 C12        10.2460   -1.6530    1.5780 c3        1 775      0.233100
     13 C13        11.4350   -2.5550    1.4240 ca        1 775     -0.108300
     14 C14        11.7930   -3.0490    0.1650 ca        1 775     -0.106500
     15 C15        12.9180   -3.8590    0.0200 ca        1 775     -0.127000
     16 C16        13.6910   -4.1720    1.1430 ca        1 775      0.022400
     17 Cl1        15.0650   -5.1580    0.9720 cl        1 775     -0.091400
     18 C18        13.3420   -3.6810    2.4050 ca        1 775     -0.127000
     19 C19        12.2130   -2.8760    2.5410 ca        1 775     -0.106500
     20 C20         6.5190   -2.1680    0.9950 cd        1 775     -0.284300
     21 C21         6.2470   -3.4690    0.5810 ch        1 775      0.272800
     22 N22         6.0220   -4.5590    0.2340 n1        1 775     -0.386800
     23 C23         5.6000   -1.1240    1.2540 cc        1 775      0.196300
     24 N24         4.2210   -1.0980    1.1790 na        1 775     -0.602400
     25 H1         -0.2500    1.0150    0.1690 hc        1 775      0.041700
     26 H2         -0.2760   -0.2130   -1.1630 hc        1 775      0.041700
     27 H3         -0.4340   -0.7430    0.5620 hc        1 775      0.041700
     28 H4          1.8660   -1.1820   -0.3710 hc        1 775      0.048200
     29 H5          2.0540    0.5780   -0.7340 hc        1 775      0.048200
     30 H6          1.6310   -0.6840    2.0700 hc        1 775      0.073200
     31 H7          1.6810    1.0930    1.7340 hc        1 775      0.073200
     32 H8          3.7310    2.1400    2.1040 ha        1 775      0.182000
     33 H10         8.9600   -3.2170    1.1090 hn        1 775      0.418800
     34 H11        10.4480   -0.6860    1.0280 h1        1 775      0.064700
     35 H12        10.1100   -1.3940    2.6700 h1        1 775      0.064700
     36 H13        11.1860   -2.7940   -0.7180 ha        1 775      0.145500
     37 H14        13.1950   -4.2450   -0.9720 ha        1 775      0.149500
     38 H15        13.9530   -3.9280    3.2860 ha        1 775      0.149500
     39 H16        11.9380   -2.4910    3.5350 ha        1 775      0.145500
     40 H9          3.7360   -1.9050    0.8600 hn        1 775      0.478800
@<TRIPOS>BOND
     1    1    2 1   
     2    1   25 1   
     3    1   26 1   
     4    1   27 1   
     5    2    3 1   
     6    2   28 1   
     7    2   29 1   
     8    3    4 1   
     9    3   30 1   
    10    3   31 1   
    11    4    5 2   
    12    4   24 1   
    13    5    6 1   
    14    5   32 1   
    15    6    7 2   
    16    6    8 1   
    17    8    9 1   
    18    8   23 1   
    19    9   10 2   
    20   10   11 1   
    21   10   20 1   
    22   11   12 1   
    23   11   33 1   
    24   12   13 1   
    25   12   34 1   
    26   12   35 1   
    27   13   14 ar  
    28   13   19 ar  
    29   14   15 ar  
    30   14   36 1   
    31   15   16 ar  
    32   15   37 1   
    33   16   17 1   
    34   16   18 ar  
    35   18   19 ar  
    36   18   38 1   
    37   19   39 1   
    38   20   21 1   
    39   20   23 2   
    40   21   22 3   
    41   23   24 1   
    42   24   40 1   
@<TRIPOS>SUBSTRUCTURE
     1 775         1 TEMP              0 ****  ****    0 ROOT
