@<TRIPOS>MOLECULE
778
   49    52     1     0     0
SMALL
bcc


@<TRIPOS>ATOM
      1 N1         -0.1370    0.8150    1.0000 n3        1 778     -0.737600
      2 C2          0.4900   -0.0750    1.9640 c3        1 778      0.150800
      3 C3         -1.4010    1.3510    1.4960 c3        1 778      0.246100
      4 C4          0.7770    1.8440    0.5410 c3        1 778      0.093800
      5 C5          1.7480   -0.7420    1.3790 c3        1 778      0.096000
      6 C7         -2.1190    2.2210    0.5290 cc        1 778     -0.222900
      7 C8          2.1970    1.3760    0.2090 c         1 778      0.704500
      8 N9          2.6740    0.1890    0.7680 n         1 778     -0.381000
      9 N11        -2.6160    1.8390   -0.7260 na        1 778     -0.187900
     10 C12        -2.4810    3.5770    0.6930 cd        1 778      0.303200
     11 O13         2.9070    2.1060   -0.5040 o         1 778     -0.618500
     12 C14         3.9990   -0.2660    0.5540 ca        1 778      0.071600
     13 C16        -2.5800    0.5390   -1.3310 c3        1 778      0.075600
     14 C17        -3.2720    2.9650   -1.2510 cc        1 778      0.387400
     15 N18        -3.1930    4.0230   -0.4160 nd        1 778     -0.660000
     16 C20         4.2700   -1.6470    0.4340 ca        1 778     -0.168000
     17 C21         5.0770    0.6450    0.4900 ca        1 778     -0.131000
     18 C25        -3.7100   -0.3830   -0.9630 ca        1 778     -0.091300
     19 C26         5.5850   -2.0840    0.2710 ca        1 778      0.035400
     20 C27         6.3770    0.1810    0.3170 ca        1 778     -0.104000
     21 C28        -5.0320    0.0680   -0.9010 ca        1 778     -0.123000
     22 C29        -3.4280   -1.7330   -0.7250 ca        1 778     -0.123000
     23 C30         6.6480   -1.1810    0.2100 ca        1 778     -0.140000
     24 CL31        5.8900   -3.7540    0.1380 cl        1 778     -0.097400
     25 C32        -6.0650   -0.8170   -0.6020 ca        1 778     -0.090000
     26 C33        -4.4550   -2.6260   -0.4310 ca        1 778     -0.090000
     27 C34        -5.7790   -2.1690   -0.3660 ca        1 778     -0.012000
     28 C35        -6.8300   -3.0770   -0.0620 cg        1 778      0.229800
     29 N36        -7.6900   -3.8200    0.1870 n1        1 778     -0.354800
     30 H21A       -0.2390   -0.8940    2.2220 h1        1 778      0.048700
     31 H22         0.7630    0.4590    2.9200 h1        1 778      0.048700
     32 H31        -2.0540    0.4650    1.7510 h1        1 778      0.054200
     33 H32A       -1.2560    1.9580    2.4410 h1        1 778      0.054200
     34 H41         0.3470    2.2890   -0.4030 h1        1 778      0.079200
     35 H42         0.9030    2.6800    1.2930 h1        1 778      0.079200
     36 H51         1.4290   -1.5090    0.6150 h1        1 778      0.055200
     37 H52         2.2760   -1.2790    2.2180 h1        1 778      0.055200
     38 H12        -2.2650    4.2320    1.5360 h4        1 778      0.044100
     39 H161       -2.6040    0.6810   -2.4530 h1        1 778      0.084200
     40 H162       -1.5970    0.0510   -1.0630 h1        1 778      0.084200
     41 H17        -3.7550    2.9590   -2.2340 h5        1 778      0.063100
     42 H20         3.4580   -2.3910    0.4600 ha        1 778      0.146000
     43 H21         4.8940    1.7300    0.5570 ha        1 778      0.164000
     44 H27         7.2050    0.9060    0.2640 ha        1 778      0.142000
     45 H28        -5.2640    1.1290   -1.0850 ha        1 778      0.146000
     46 H29        -2.3890   -2.0960   -0.7710 ha        1 778      0.146000
     47 H30         7.6800   -1.5370    0.0780 ha        1 778      0.149000
     48 H32        -7.1040   -0.4550   -0.5510 ha        1 778      0.149500
     49 H33        -4.2290   -3.6880   -0.2480 ha        1 778      0.149500
@<TRIPOS>BOND
     1    1    2 1   
     2    1    3 1   
     3    1    4 1   
     4    2    5 1   
     5    2   30 1   
     6    2   31 1   
     7    3    6 1   
     8    3   32 1   
     9    3   33 1   
    10    4    7 1   
    11    4   34 1   
    12    4   35 1   
    13    5    8 1   
    14    5   36 1   
    15    5   37 1   
    16    6    9 1   
    17    6   10 2   
    18    7    8 1   
    19    7   11 2   
    20    8   12 1   
    21    9   13 1   
    22    9   14 1   
    23   10   15 1   
    24   10   38 1   
    25   12   16 ar  
    26   12   17 ar  
    27   13   18 1   
    28   13   39 1   
    29   13   40 1   
    30   14   15 2   
    31   14   41 1   
    32   16   19 ar  
    33   16   42 1   
    34   17   20 ar  
    35   17   43 1   
    36   18   21 ar  
    37   18   22 ar  
    38   19   23 ar  
    39   19   24 1   
    40   20   23 ar  
    41   20   44 1   
    42   21   25 ar  
    43   21   45 1   
    44   22   26 ar  
    45   22   46 1   
    46   23   47 1   
    47   25   27 ar  
    48   25   48 1   
    49   26   27 ar  
    50   26   49 1   
    51   27   28 1   
    52   28   29 3   
@<TRIPOS>SUBSTRUCTURE
     1 778         1 TEMP              0 ****  ****    0 ROOT
