@<TRIPOS>MOLECULE
778
   49    45     1     0     0
SMALL
bcc


@<TRIPOS>ATOM
      1 N1          0.1080   -0.9040    0.7120 n3        1 778     -0.267000
      2 C2          1.7140   -0.9850    0.6990 c3        1 778     -0.082000
      3 C3         -0.5110   -1.0760   -1.0610 c3        1 778      0.003000
      4 C4         -0.5720   -2.0870    1.6160 c3        1 778     -0.090000
      5 C5          2.2890   -1.0090    2.0430 c3        1 778     -0.034000
      6 C7         -1.6200   -0.0800   -1.3050 c2        1 778     -0.138000
      7 C8          0.1130   -2.0960    3.0590 c2        1 778      0.282000
      8 N9          1.6550   -2.1260    3.0070 n         1 778     -0.292000
      9 N11        -1.9520    0.9380   -2.1210 n2        1 778     -0.146000
     10 C12        -2.7610   -0.7860   -1.0240 c1        1 778     -0.156000
     11 O13        -0.4820   -2.5810    4.0220 o         1 778     -0.335000
     12 C14         2.4170   -2.6300    4.1420 c2        1 778      0.081000
     13 C16        -1.0400    1.9830   -2.6160 c2        1 778      0.011000
     14 C17        -3.2830    0.8720   -2.3480 c1        1 778     -0.088000
     15 N18        -3.7760   -0.2010   -1.6640 n2        1 778     -0.137000
     16 C20         2.5130   -1.8770    5.3100 c2        1 778     -0.168000
     17 C21         3.0410   -3.8750    4.0610 c1        1 778     -0.135000
     18 C25        -1.7220    2.7840   -3.6930 c2        1 778     -0.085000
     19 C26         3.2340   -2.3690    6.4010 c1        1 778     -0.043000
     20 C27         3.7640   -4.3690    5.1530 c1        1 778     -0.122000
     21 C28        -2.7290    3.7200   -3.5230 c2        1 778     -0.127000
     22 C29        -0.9290    2.8180   -4.8300 c1        1 778     -0.118000
     23 C30         3.8610   -3.6210    6.3180 c1        1 778     -0.122000
     24 CL31        3.3990   -1.4020    7.8470 cl        1 778     -0.018000
     25 C32        -2.9450    4.6880   -4.4870 c1        1 778     -0.090000
     26 C33        -1.1460    3.7920   -5.8010 c1        1 778     -0.089000
     27 C34        -2.1500    4.7240   -5.6310 c1        1 778     -0.006000
     28 C35        -2.3080    5.8780   -6.6390 c1        1 778     -0.101000
     29 N36        -2.4280    6.7450   -7.3990 n1        1 778     -0.028000
     30 H21A        2.0730   -0.1920    0.2090 h1        1 778      0.091500
     31 H22         1.9830   -1.7940    0.2290 h1        1 778      0.091500
     32 H31        -0.8470   -1.9740   -1.2000 h1        1 778      0.091000
     33 H32A        0.2220   -0.9050   -1.6790 h1        1 778      0.091000
     34 H41        -0.6000   -2.9370    1.1280 h1        1 778      0.131000
     35 H42        -1.5430   -1.9190    1.7450 h1        1 778      0.131000
     36 H51         3.2550   -1.1720    1.9660 h1        1 778      0.099000
     37 H52         2.1520   -0.1210    2.4590 h1        1 778      0.099000
     38 H12        -2.8220   -1.5810   -0.4540 DU        1 778      0.192500
     39 H161       -0.2210    1.5560   -2.9890 ha        1 778      0.120500
     40 H162       -0.7910    2.5780   -1.8760 ha        1 778      0.120500
     41 H17        -3.8070    1.4890   -2.9100 DU        1 778      0.192500
     42 H20         2.0770   -1.0080    5.3660 ha        1 778      0.146000
     43 H21         2.9720   -4.4110    3.2280 ha        1 778      0.166000
     44 H27         4.2020   -5.2420    5.0940 ha        1 778      0.146000
     45 H28        -3.2900    3.6950   -2.7190 ha        1 778      0.141000
     46 H29        -0.2120    2.1510   -4.9510 ha        1 778      0.147000
     47 H30         4.3690   -3.9680    7.0820 ha        1 778      0.146000
     48 H32        -3.6520    5.3430   -4.3670 ha        1 778      0.149000
     49 H33        -0.5940    3.8160   -6.5950 ha        1 778      0.150000
@<TRIPOS>BOND
     1    1    2 1   
     2    1    3 1   
     3    1    4 1   
     4    2    5 1   
     5    2   30 1   
     6    2   31 1   
     7    3    6 1   
     8    3   32 1   
     9    3   33 1   
    10    4    7 1   
    11    4   34 1   
    12    4   35 1   
    13    5    8 1   
    14    5   36 1   
    15    5   37 1   
    16    6    9 1   
    17    6   10 1   
    18    7    8 1   
    19    7   11 1   
    20    8   12 1   
    21    9   14 1   
    22   10   15 1   
    23   12   16 1   
    24   12   17 1   
    25   13   18 1   
    26   13   39 1   
    27   13   40 1   
    28   14   15 1   
    29   16   19 1   
    30   16   42 1   
    31   17   43 1   
    32   18   21 1   
    33   18   22 1   
    34   19   24 1   
    35   20   23 1   
    36   20   44 1   
    37   21   25 1   
    38   21   45 1   
    39   22   46 1   
    40   23   47 1   
    41   25   48 1   
    42   26   27 1   
    43   26   49 1   
    44   27   28 1   
    45   28   29 1   
@<TRIPOS>SUBSTRUCTURE
     1 778         1 TEMP              0 ****  ****    0 ROOT
