@<TRIPOS>MOLECULE
779
   73    76     1     0     0
SMALL
bcc


@<TRIPOS>ATOM
      1 C1          0.3510    0.4410   -0.1850 c         1 779      0.684500
      2 C2          1.7190    0.0920    0.4770 c3        1 779      0.115200
      3 N3          1.4090   -0.0220    1.9180 nu        1 779     -0.798200
      4 C4         -0.0020    0.2970    2.1110 c2        1 779      0.593800
      5 N5         -0.6010    0.6130    0.8310 n         1 779     -0.399300
      6 O6          0.1400    0.6140   -1.3920 o         1 779     -0.612500
      7 C7          2.2280   -1.2380   -0.1120 c3        1 779     -0.058400
      8 C8          2.3120    2.6040    0.4000 c3        1 779     -0.062700
      9 C9          1.3190   -2.4170    0.1580 c3        1 779     -0.076400
     10 C10         1.7920   -3.6660   -0.5760 c3        1 779     -0.063700
     11 C11         1.8770    3.2620   -0.9070 c3        1 779     -0.114400
     12 C12         1.3760    4.6830   -0.6180 c3        1 779      0.126500
     13 C13         2.5100    5.5160   -0.0160 c3        1 779     -0.100400
     14 C14         2.9910    4.8550    1.2630 c3        1 779     -0.077400
     15 C15         3.4270    3.4230    1.0350 c3        1 779     -0.089400
     16 C16         1.1900   -4.9060    0.0730 c3        1 779     -0.072900
     17 C17         1.6250   -6.1680   -0.6420 c3        1 779     -0.076900
     18 C18         1.2830   -6.1150   -2.1160 c3        1 779     -0.077400
     19 C19         1.8640   -4.8780   -2.7690 c3        1 779     -0.076900
     20 C20         1.4220   -3.6180   -2.0520 c3        1 779     -0.072900
     21 N21        -0.6930    0.2780    3.2070 n2        1 779     -0.800100
     22 N22         0.8120    5.2990   -1.8760 ny        1 779     -0.673800
     23 C23        -0.1880    6.4260   -1.5690 c         1 779      0.642100
     24 C24         2.7620    1.1730    0.1390 c3        1 779     -0.095400
     25 C25        -2.0180    0.5530    0.6300 c3        1 779      0.086300
     26 O26        -1.3470    6.0170   -1.4470 o         1 779     -0.486100
     27 N27         0.3100    7.6900   -1.4300 ns        1 779     -0.412100
     28 C28        -0.5280    8.8390   -1.3180 ca        1 779     -0.002400
     29 C29        -0.0250   10.0720   -1.7900 ca        1 779     -0.131000
     30 C30        -0.7950   11.2220   -1.6530 ca        1 779     -0.100500
     31 C31        -2.0590   11.1650   -1.0630 ca        1 779     -0.104000
     32 C32        -2.5550    9.9470   -0.6040 ca        1 779     -0.100500
     33 C33        -1.8020    8.7800   -0.7240 ca        1 779     -0.131000
     34 H1          2.3290   -1.0890   -1.2210 hc        1 779      0.060200
     35 H2          3.2470   -1.4460    0.3070 hc        1 779      0.060200
     36 H3          1.4310    2.6030    1.1040 hc        1 779      0.063700
     37 H4          0.2720   -2.1700   -0.1610 hc        1 779      0.051700
     38 H5          1.2940   -2.6310    1.2590 hc        1 779      0.051700
     39 H6          2.9130   -3.7340   -0.4910 hc        1 779      0.048700
     40 H7          2.7480    3.2990   -1.6140 hc        1 779      0.080700
     41 H8          1.0680    2.6400   -1.3790 hc        1 779      0.080700
     42 H9          0.5120    4.6300    0.1150 hx        1 779      0.121700
     43 H10         3.3620    5.5900   -0.7420 hc        1 779      0.060200
     44 H11         2.1590    6.5530    0.2250 hc        1 779      0.060200
     45 H12         2.1730    4.8850    2.0300 hc        1 779      0.069700
     46 H13         3.8540    5.4480    1.6690 hc        1 779      0.069700
     47 H14         4.3340    3.3990    0.3760 hc        1 779      0.064700
     48 H15         3.7140    2.9660    2.0180 hc        1 779      0.064700
     49 H16         1.5060   -4.9580    1.1480 hc        1 779      0.039700
     50 H17         0.0710   -4.8280    0.0530 hc        1 779      0.039700
     51 H18         1.1250   -7.0540   -0.1710 hc        1 779      0.042200
     52 H19         2.7320   -6.3030   -0.5200 hc        1 779      0.042200
     53 H20         0.1680   -6.1150   -2.2410 hc        1 779      0.043700
     54 H21         1.6790   -7.0310   -2.6270 hc        1 779      0.043700
     55 H22         2.9840   -4.9410   -2.7590 hc        1 779      0.042200
     56 H23         1.5380   -4.8300   -3.8410 hc        1 779      0.042200
     57 H24         1.9020   -2.7280   -2.5340 hc        1 779      0.039700
     58 H25         0.3110   -3.5000   -2.1540 hc        1 779      0.039700
     59 H26        -0.1850    0.0580    4.0370 hn        1 779      0.420400
     60 H28         1.5750    5.6120   -2.4780 hn        1 779      0.460300
     61 H29         3.0310    1.0530   -0.9450 hc        1 779      0.074700
     62 H30         3.6920    0.9560    0.7310 hc        1 779      0.074700
     63 H31        -2.4290   -0.4500    0.9250 h1        1 779      0.062700
     64 H32        -2.2350    0.7410   -0.4560 h1        1 779      0.062700
     65 H33        -2.5110    1.3410    1.2600 h1        1 779      0.062700
     66 H34         1.2790    7.8750   -1.5840 hn        1 779      0.343500
     67 H35         0.9680   10.1410   -2.2590 ha        1 779      0.151500
     68 H36        -0.4000   12.1840   -2.0180 ha        1 779      0.158500
     69 H37        -2.6620   12.0820   -0.9630 ha        1 779      0.160000
     70 H38        -3.5540    9.8960   -0.1390 ha        1 779      0.158500
     71 H39        -2.2200    7.8270   -0.3600 ha        1 779      0.151500
     72 H40         2.0150    0.5250    2.4950 hn        1 779      0.396800
     73 H222        0.2750    4.5710   -2.3730 hn        1 779      0.460300
@<TRIPOS>BOND
     1    1    2 1   
     2    1    5 1   
     3    1    6 2   
     4    2    3 1   
     5    2    7 1   
     6    2   24 1   
     7    3    4 1   
     8    3   72 1   
     9    4    5 1   
    10    4   21 2   
    11    5   25 1   
    12    7    9 1   
    13    7   34 1   
    14    7   35 1   
    15    8   11 1   
    16    8   15 1   
    17    8   24 1   
    18    8   36 1   
    19    9   10 1   
    20    9   37 1   
    21    9   38 1   
    22   10   16 1   
    23   10   20 1   
    24   10   39 1   
    25   11   12 1   
    26   11   40 1   
    27   11   41 1   
    28   12   13 1   
    29   12   22 1   
    30   12   42 1   
    31   13   14 1   
    32   13   43 1   
    33   13   44 1   
    34   14   15 1   
    35   14   45 1   
    36   14   46 1   
    37   15   47 1   
    38   15   48 1   
    39   16   17 1   
    40   16   49 1   
    41   16   50 1   
    42   17   18 1   
    43   17   51 1   
    44   17   52 1   
    45   18   19 1   
    46   18   53 1   
    47   18   54 1   
    48   19   20 1   
    49   19   55 1   
    50   19   56 1   
    51   20   57 1   
    52   20   58 1   
    53   21   59 1   
    54   22   23 1   
    55   22   60 1   
    56   22   73 1   
    57   23   26 2   
    58   23   27 1   
    59   24   61 1   
    60   24   62 1   
    61   25   63 1   
    62   25   64 1   
    63   25   65 1   
    64   27   28 1   
    65   27   66 1   
    66   28   29 ar  
    67   28   33 ar  
    68   29   30 ar  
    69   29   67 1   
    70   30   31 ar  
    71   30   68 1   
    72   31   32 ar  
    73   31   69 1   
    74   32   33 ar  
    75   32   70 1   
    76   33   71 1   
@<TRIPOS>SUBSTRUCTURE
     1 779         1 TEMP              0 ****  ****    0 ROOT
