@<TRIPOS>MOLECULE
779
   72    75     1     0     0
SMALL
bcc


@<TRIPOS>ATOM
      1 C1          0.0170    0.1470   -0.1450 c         1 779      0.692500
      2 C2          1.4950   -0.0210    0.3260 c3        1 779      0.112200
      3 N3          1.4100   -0.0880    1.8020 nh        1 779     -0.799200
      4 C4         -0.0040   -0.0580    2.1750 c2        1 779      0.609800
      5 N5         -0.8070    0.0620    0.9870 n         1 779     -0.408300
      6 O6         -0.3740    0.3030   -1.3040 o         1 779     -0.588500
      7 C7          2.0900   -1.2740   -0.3380 c3        1 779     -0.095400
      8 C8          1.9000    2.5320    0.4280 c3        1 779     -0.053700
      9 C9          1.3640   -2.5570    0.0040 c3        1 779     -0.084400
     10 C10         1.9070   -3.7380   -0.7900 c3        1 779     -0.060700
     11 C11         1.8750    3.5930   -0.6670 c3        1 779     -0.081400
     12 C12         1.4280    4.9450   -0.0860 c3        1 779      0.089700
     13 C13         2.3970    5.3640    1.0320 c3        1 779     -0.106400
     14 C14         2.4450    4.3030    2.1100 c3        1 779     -0.074400
     15 C15         2.8440    2.9560    1.5450 c3        1 779     -0.075400
     16 C16         1.5310   -5.0440   -0.1030 c3        1 779     -0.073900
     17 C17         2.0400   -6.2410   -0.8790 c3        1 779     -0.076400
     18 C18         1.5400   -6.2260   -2.3090 c3        1 779     -0.077400
     19 C19         1.8960   -4.9250   -2.9980 c3        1 779     -0.076400
     20 C20         1.3830   -3.7310   -2.2200 c3        1 779     -0.073900
     21 N21        -0.5210   -0.0720    3.3670 n2        1 779     -0.823100
     22 N22         1.2920    5.9360   -1.1420 n         1 779     -0.537900
     23 C23         0.4890    7.0690   -0.8870 c         1 779      0.750100
     24 C24         2.3130    1.1900   -0.1620 c3        1 779     -0.058400
     25 C25        -2.2050    0.3580    1.0210 c3        1 779      0.098300
     26 O26        -0.3020    7.0870    0.0830 o         1 779     -0.618100
     27 N27         0.6070    8.1610   -1.7800 n         1 779     -0.459100
     28 C28        -0.3270    9.2160   -1.8330 ca        1 779      0.061600
     29 C29        -0.5530    9.8620   -3.0730 ca        1 779     -0.159000
     30 C30        -1.4060   10.9570   -3.1480 ca        1 779     -0.109000
     31 C31        -2.0570   11.4280   -2.0090 ca        1 779     -0.153000
     32 C32        -1.8460   10.7940   -0.7870 ca        1 779     -0.109000
     33 C33        -0.9900    9.7010   -0.6860 ca        1 779     -0.159000
     34 H1          3.1690   -1.3610   -0.0420 hc        1 779      0.064700
     35 H2          2.0520   -1.1100   -1.4480 hc        1 779      0.064700
     36 H3          0.8600    2.4520    0.8540 hc        1 779      0.059700
     37 H4          0.2670   -2.4400   -0.2050 hc        1 779      0.045200
     38 H5          1.4740   -2.7810    1.0980 hc        1 779      0.045200
     39 H6          3.0310   -3.6670   -0.8230 hc        1 779      0.046700
     40 H7          1.1650    3.2760   -1.4760 hc        1 779      0.049200
     41 H8          2.8950    3.6880   -1.1200 hc        1 779      0.049200
     42 H9          0.4010    4.8150    0.3750 h1        1 779      0.093700
     43 H10         3.4230    5.5220    0.6100 hc        1 779      0.047200
     44 H11         2.0520    6.3350    1.4770 hc        1 779      0.047200
     45 H12         3.1810    4.6090    2.8980 hc        1 779      0.046700
     46 H13         1.4400    4.2220    2.6010 hc        1 779      0.046700
     47 H14         3.8920    3.0110    1.1470 hc        1 779      0.045200
     48 H15         2.8310    2.1880    2.3600 hc        1 779      0.045200
     49 H16         1.9620   -5.0610    0.9320 hc        1 779      0.042200
     50 H17         0.4150   -5.1030   -0.0060 hc        1 779      0.042200
     51 H18         1.7030   -7.1840   -0.3730 hc        1 779      0.039700
     52 H19         3.1620   -6.2390   -0.8750 hc        1 779      0.039700
     53 H20         0.4270   -6.3610   -2.3170 hc        1 779      0.040200
     54 H21         1.9880   -7.0860   -2.8730 hc        1 779      0.040200
     55 H22         1.4570   -4.9140   -4.0300 hc        1 779      0.039700
     56 H23         3.0100   -4.8520   -3.1050 hc        1 779      0.039700
     57 H24         0.2610   -3.7470   -2.2060 hc        1 779      0.042200
     58 H25         1.6990   -2.7870   -2.7340 hc        1 779      0.042200
     59 H26         0.1340   -0.1670    4.1130 hn        1 779      0.406400
     60 H28         2.1180    6.0720   -1.6820 hn        1 779      0.286500
     61 H29         2.1950    1.2150   -1.2790 hc        1 779      0.058200
     62 H30         3.3950    0.9970    0.0630 hc        1 779      0.058200
     63 H31        -2.5800    0.4340   -0.0350 h1        1 779      0.056700
     64 H32        -2.3950    1.3250    1.5590 h1        1 779      0.056700
     65 H33        -2.7490   -0.4640    1.5590 h1        1 779      0.056700
     66 H34         1.0680    7.9850   -2.6470 hn        1 779      0.304500
     67 H35        -0.0540    9.5070   -3.9880 ha        1 779      0.148000
     68 H36        -1.5690   11.4500   -4.1180 ha        1 779      0.132000
     69 H37        -2.7340   12.2920   -2.0770 ha        1 779      0.132000
     70 H38        -2.3590   11.1580    0.1160 ha        1 779      0.132000
     71 H39        -0.8450    9.2110    0.2910 ha        1 779      0.148000
     72 H40         1.8850   -0.8850    2.1770 hn        1 779      0.395800
@<TRIPOS>BOND
     1    1    2 1   
     2    1    5 1   
     3    1    6 2   
     4    2    3 1   
     5    2    7 1   
     6    2   24 1   
     7    3    4 1   
     8    3   72 1   
     9    4    5 1   
    10    4   21 2   
    11    5   25 1   
    12    7    9 1   
    13    7   34 1   
    14    7   35 1   
    15    8   11 1   
    16    8   15 1   
    17    8   24 1   
    18    8   36 1   
    19    9   10 1   
    20    9   37 1   
    21    9   38 1   
    22   10   16 1   
    23   10   20 1   
    24   10   39 1   
    25   11   12 1   
    26   11   40 1   
    27   11   41 1   
    28   12   13 1   
    29   12   22 1   
    30   12   42 1   
    31   13   14 1   
    32   13   43 1   
    33   13   44 1   
    34   14   15 1   
    35   14   45 1   
    36   14   46 1   
    37   15   47 1   
    38   15   48 1   
    39   16   17 1   
    40   16   49 1   
    41   16   50 1   
    42   17   18 1   
    43   17   51 1   
    44   17   52 1   
    45   18   19 1   
    46   18   53 1   
    47   18   54 1   
    48   19   20 1   
    49   19   55 1   
    50   19   56 1   
    51   20   57 1   
    52   20   58 1   
    53   21   59 1   
    54   22   23 1   
    55   22   60 1   
    56   23   26 2   
    57   23   27 1   
    58   24   61 1   
    59   24   62 1   
    60   25   63 1   
    61   25   64 1   
    62   25   65 1   
    63   27   28 1   
    64   27   66 1   
    65   28   29 ar  
    66   28   33 ar  
    67   29   30 ar  
    68   29   67 1   
    69   30   31 ar  
    70   30   68 1   
    71   31   32 ar  
    72   31   69 1   
    73   32   33 ar  
    74   32   70 1   
    75   33   71 1   
@<TRIPOS>SUBSTRUCTURE
     1 779         1 TEMP              0 ****  ****    0 ROOT
