@<TRIPOS>MOLECULE
779
   73    76     1     0     0
SMALL
bcc


@<TRIPOS>ATOM
      1 C1          0.3510    0.4420   -0.1860 c         1 779      0.684500
      2 C2          1.7170    0.0950    0.4800 c3        1 779      0.115200
      3 N3          1.4050   -0.0190    1.9200 nh        1 779     -0.798200
      4 C4         -0.0080    0.2980    2.1100 c2        1 779      0.593800
      5 N5         -0.6040    0.6130    0.8280 n         1 779     -0.399300
      6 O6          0.1420    0.6150   -1.3930 o         1 779     -0.612500
      7 C7          2.2300   -1.2350   -0.1090 c3        1 779     -0.058400
      8 C8          2.3070    2.6080    0.4040 c3        1 779     -0.062700
      9 C9          1.3230   -2.4150    0.1590 c3        1 779     -0.076400
     10 C10         1.7980   -3.6630   -0.5730 c3        1 779     -0.063700
     11 C11         1.8750    3.2650   -0.9040 c3        1 779     -0.114400
     12 C12         1.3710    4.6850   -0.6170 c3        1 779      0.126500
     13 C13         2.5030    5.5200   -0.0110 c3        1 779     -0.100400
     14 C14         2.9820    4.8600    1.2690 c3        1 779     -0.077400
     15 C15         3.4200    3.4290    1.0420 c3        1 779     -0.089400
     16 C16         1.1960   -4.9040    0.0750 c3        1 779     -0.072900
     17 C17         1.6350   -6.1650   -0.6390 c3        1 779     -0.076900
     18 C18         1.2960   -6.1130   -2.1150 c3        1 779     -0.077400
     19 C19         1.8770   -4.8750   -2.7660 c3        1 779     -0.076900
     20 C20         1.4310   -3.6160   -2.0500 c3        1 779     -0.072900
     21 N21        -0.7010    0.2770    3.2040 n2        1 779     -0.800100
     22 N22         0.8110    5.3010   -1.8760 n4        1 779     -0.673800
     23 C23        -0.1900    6.4280   -1.5710 c         1 779      0.642100
     24 C24         2.7610    1.1770    0.1440 c3        1 779     -0.095400
     25 C25        -2.0210    0.5520    0.6230 c3        1 779      0.086300
     26 O26        -1.3490    6.0190   -1.4490 o         1 779     -0.486100
     27 N27         0.3070    7.6920   -1.4340 n         1 779     -0.412100
     28 C28        -0.5310    8.8410   -1.3250 ca        1 779     -0.002400
     29 C29        -0.0290   10.0730   -1.8000 ca        1 779     -0.131000
     30 C30        -0.8000   11.2230   -1.6660 ca        1 779     -0.100500
     31 C31        -2.0640   11.1670   -1.0760 ca        1 779     -0.104000
     32 C32        -2.5590    9.9500   -0.6130 ca        1 779     -0.100500
     33 C33        -1.8050    8.7830   -0.7310 ca        1 779     -0.131000
     34 H1          2.3340   -1.0850   -1.2170 hc        1 779      0.060200
     35 H2          3.2490   -1.4410    0.3130 hc        1 779      0.060200
     36 H3          1.4250    2.6060    1.1060 hc        1 779      0.063700
     37 H4          0.2760   -2.1690   -0.1620 hc        1 779      0.051700
     38 H5          1.2950   -2.6280    1.2610 hc        1 779      0.051700
     39 H6          2.9190   -3.7290   -0.4860 hc        1 779      0.048700
     40 H7          2.7480    3.3030   -1.6080 hc        1 779      0.080700
     41 H8          1.0680    2.6420   -1.3780 hc        1 779      0.080700
     42 H9          0.5060    4.6310    0.1140 hx        1 779      0.121700
     43 H10         3.3570    5.5950   -0.7350 hc        1 779      0.060200
     44 H11         2.1500    6.5570    0.2280 hc        1 779      0.060200
     45 H12         3.8430    5.4540    1.6770 hc        1 779      0.069700
     46 H13         2.1620    4.8880    2.0340 hc        1 779      0.069700
     47 H14         3.7050    2.9710    2.0260 hc        1 779      0.064700
     48 H15         4.3290    3.4050    0.3850 hc        1 779      0.064700
     49 H16         0.0780   -4.8270    0.0530 hc        1 779      0.039700
     50 H17         1.5110   -4.9550    1.1500 hc        1 779      0.039700
     51 H18         1.1350   -7.0520   -0.1700 hc        1 779      0.042200
     52 H19         2.7420   -6.2990   -0.5150 hc        1 779      0.042200
     53 H20         1.6940   -7.0280   -2.6250 hc        1 779      0.043700
     54 H21         0.1810   -6.1140   -2.2420 hc        1 779      0.043700
     55 H22         2.9970   -4.9360   -2.7530 hc        1 779      0.042200
     56 H23         1.5530   -4.8270   -3.8380 hc        1 779      0.042200
     57 H24         1.9110   -2.7240   -2.5310 hc        1 779      0.039700
     58 H25         0.3210   -3.4990   -2.1540 hc        1 779      0.039700
     59 H26        -0.1950    0.0570    4.0350 hn        1 779      0.420400
     60 H28         1.5750    5.6130   -2.4770 hn        1 779      0.460300
     61 H29         3.0320    1.0580   -0.9390 hc        1 779      0.074700
     62 H30         3.6890    0.9610    0.7390 hc        1 779      0.074700
     63 H31        -2.2350    0.7390   -0.4630 h1        1 779      0.062700
     64 H32        -2.5160    1.3390    1.2520 h1        1 779      0.062700
     65 H33        -2.4300   -0.4520    0.9170 h1        1 779      0.062700
     66 H34         1.2760    7.8770   -1.5880 hn        1 779      0.343500
     67 H35         0.9640   10.1410   -2.2690 ha        1 779      0.151500
     68 H36        -0.4050   12.1840   -2.0330 ha        1 779      0.158500
     69 H37        -2.6670   12.0840   -0.9780 ha        1 779      0.160000
     70 H38        -3.5580    9.9000   -0.1490 ha        1 779      0.158500
     71 H39        -2.2230    7.8310   -0.3640 ha        1 779      0.151500
     72 H40         2.0090    0.5280    2.4980 hn        1 779      0.396800
     73 H222        0.2750    4.5720   -2.3730 hn        1 779      0.460300
@<TRIPOS>BOND
     1    1    2 1   
     2    1    5 1   
     3    1    6 2   
     4    2    3 1   
     5    2    7 1   
     6    2   24 1   
     7    3    4 1   
     8    3   72 1   
     9    4    5 1   
    10    4   21 2   
    11    5   25 1   
    12    7    9 1   
    13    7   34 1   
    14    7   35 1   
    15    8   11 1   
    16    8   15 1   
    17    8   24 1   
    18    8   36 1   
    19    9   10 1   
    20    9   37 1   
    21    9   38 1   
    22   10   16 1   
    23   10   20 1   
    24   10   39 1   
    25   11   12 1   
    26   11   40 1   
    27   11   41 1   
    28   12   13 1   
    29   12   22 1   
    30   12   42 1   
    31   13   14 1   
    32   13   43 1   
    33   13   44 1   
    34   14   15 1   
    35   14   45 1   
    36   14   46 1   
    37   15   47 1   
    38   15   48 1   
    39   16   17 1   
    40   16   49 1   
    41   16   50 1   
    42   17   18 1   
    43   17   51 1   
    44   17   52 1   
    45   18   19 1   
    46   18   53 1   
    47   18   54 1   
    48   19   20 1   
    49   19   55 1   
    50   19   56 1   
    51   20   57 1   
    52   20   58 1   
    53   21   59 1   
    54   22   23 1   
    55   22   60 1   
    56   22   73 1   
    57   23   26 2   
    58   23   27 1   
    59   24   61 1   
    60   24   62 1   
    61   25   63 1   
    62   25   64 1   
    63   25   65 1   
    64   27   28 1   
    65   27   66 1   
    66   28   29 ar  
    67   28   33 ar  
    68   29   30 ar  
    69   29   67 1   
    70   30   31 ar  
    71   30   68 1   
    72   31   32 ar  
    73   31   69 1   
    74   32   33 ar  
    75   32   70 1   
    76   33   71 1   
@<TRIPOS>SUBSTRUCTURE
     1 779         1 TEMP              0 ****  ****    0 ROOT
