@<TRIPOS>MOLECULE
77A
   51    52     1     0     0
SMALL
bcc


@<TRIPOS>ATOM
      1 N1          0.8660    1.5920    0.5850 n4        1 77A     -0.472200
      2 C2          1.8110    0.9410   -0.3190 ca        1 77A     -0.161400
      3 C3          3.1980    1.1110   -0.1200 ca        1 77A     -0.074000
      4 C4          4.0920    0.5970   -1.0580 ca        1 77A      0.016400
      5 C5          3.6140   -0.0820   -2.1990 ca        1 77A      0.005000
      6 C6          2.2480   -0.2660   -2.3900 ca        1 77A     -0.149000
      7 C7          1.3350    0.2310   -1.4530 ca        1 77A      0.141100
      8 O8         -0.0320    0.0570   -1.5230 os        1 77A     -0.438900
      9 C9         -0.5710   -0.2730   -2.8220 c3        1 77A      0.116700
     10 CL10        5.7430    0.8000   -0.8340 cl        1 77A      0.060600
     11 C11         0.4210    0.7020    1.7100 c         1 77A      0.489100
     12 O12         0.5850    1.0350    2.8710 o         1 77A     -0.296100
     13 N13        -0.2070   -0.6140    1.3640 n4        1 77A     -0.609500
     14 C14        -1.6510   -0.6230    1.7090 ca        1 77A      0.318900
     15 N15        -1.9740   -0.7380    3.0440 nb        1 77A     -0.696000
     16 C16        -3.2930   -0.7830    3.3100 ca        1 77A      0.575300
     17 C17        -4.2990   -0.7040    2.2500 ca        1 77A      0.388900
     18 N18        -3.9410   -0.5940    0.9780 nb        1 77A     -0.550000
     19 C19        -2.6150   -0.5520    0.6780 ca        1 77A      0.350900
     20 O20        -3.8240   -0.9370    4.5580 os        1 77A     -0.456100
     21 C21        -2.9880   -0.8550    5.7420 c3        1 77A      0.144100
     22 C22        -3.9850   -1.0480    6.9050 c3        1 77A      0.090800
     23 N23        -4.6540   -2.3850    6.9630 n4        1 77A     -0.678400
     24 C24        -5.9040   -2.3020    7.7760 c3        1 77A      0.079100
     25 C25        -2.3420    0.5060    5.8920 c3        1 77A     -0.140100
     26 C26        -3.7520   -3.4300    7.5180 c3        1 77A      0.079100
     27 HN1         1.3190    2.4260    1.0140 hn        1 77A      0.513800
     28 H3          3.5890    1.6630    0.7550 ha        1 77A      0.187000
     29 H5          4.3320   -0.4710   -2.9500 ha        1 77A      0.217000
     30 H6          1.8880   -0.7980   -3.2900 ha        1 77A      0.202000
     31 H91        -1.6740   -0.1480   -2.6750 h1        1 77A      0.088367
     32 H92        -0.3100   -1.3290   -3.0730 h1        1 77A      0.088367
     33 H93        -0.1870    0.4380   -3.5930 h1        1 77A      0.088367
     34 HN13       -0.1160   -0.8430    0.3530 hn        1 77A      0.515300
     35 H17        -5.3830   -0.7310    2.4950 h4        1 77A      0.108100
     36 H19        -2.3660   -0.4720   -0.4000 h4        1 77A      0.078100
     37 H21        -2.2240   -1.6780    5.6960 h1        1 77A      0.088700
     38 H221       -3.4280   -0.8880    7.8740 hx        1 77A      0.133200
     39 H222       -4.7910   -0.2590    6.8150 hx        1 77A      0.133200
     40 H241       -6.6210   -1.5850    7.2930 hx        1 77A      0.115700
     41 H242       -6.3740   -3.3230    7.8320 hx        1 77A      0.115700
     42 H243       -5.6560   -1.9490    8.8140 hx        1 77A      0.115700
     43 H251       -3.0680    1.3180    5.6410 hc        1 77A      0.082033
     44 H252       -1.4480    0.5990    5.2310 hc        1 77A      0.082033
     45 H253       -1.9970    0.6530    6.9470 hc        1 77A      0.082033
     46 H261       -3.5080   -3.1910    8.5890 hx        1 77A      0.115700
     47 H262       -4.2710   -4.4280    7.4740 hx        1 77A      0.115700
     48 H263       -2.8070   -3.4710    6.9150 hx        1 77A      0.115700
     49 H12         0.0400    1.8970    0.0370 hn        1 77A      0.513800
     50 H132        0.2840   -1.3440    1.9210 hn        1 77A      0.515300
     51 H231       -4.9140   -2.6530    6.0030 hn        1 77A      0.452800
@<TRIPOS>BOND
     1    1    2 1   
     2    1   11 1   
     3    1   27 1   
     4    1   49 1   
     5    2    3 ar  
     6    2    7 ar  
     7    3    4 ar  
     8    3   28 1   
     9    4    5 ar  
    10    4   10 1   
    11    5    6 ar  
    12    5   29 1   
    13    6    7 ar  
    14    6   30 1   
    15    7    8 1   
    16    8    9 1   
    17    9   31 1   
    18    9   32 1   
    19    9   33 1   
    20   11   12 2   
    21   11   13 1   
    22   13   14 1   
    23   13   34 1   
    24   13   50 1   
    25   14   15 ar  
    26   14   19 ar  
    27   15   16 ar  
    28   16   17 ar  
    29   16   20 1   
    30   17   18 ar  
    31   17   35 1   
    32   18   19 ar  
    33   19   36 1   
    34   20   21 1   
    35   21   22 1   
    36   21   25 1   
    37   21   37 1   
    38   22   23 1   
    39   22   38 1   
    40   22   39 1   
    41   23   24 1   
    42   23   26 1   
    43   23   51 1   
    44   24   40 1   
    45   24   41 1   
    46   24   42 1   
    47   25   43 1   
    48   25   44 1   
    49   25   45 1   
    50   26   46 1   
    51   26   47 1   
    52   26   48 1   
@<TRIPOS>SUBSTRUCTURE
     1 77A         1 TEMP              0 ****  ****    0 ROOT
