@<TRIPOS>MOLECULE
77A
   48    49     1     0     0
SMALL
bcc


@<TRIPOS>ATOM
      1 N1         -3.4030    1.2310    5.5130 n         1 77A     -0.447100
      2 C2         -3.0770    2.5530    5.8770 ca        1 77A      0.039600
      3 C3         -2.0530    3.2680    5.2310 ca        1 77A     -0.101000
      4 C4         -1.7070    4.5500    5.6660 ca        1 77A      0.005400
      5 C5         -2.3570    5.1490    6.7440 ca        1 77A     -0.109000
      6 C6         -3.3750    4.4590    7.3990 ca        1 77A     -0.176000
      7 C7         -3.7430    3.1810    6.9750 ca        1 77A      0.083100
      8 O8         -4.7570    2.4440    7.5660 os        1 77A     -0.348900
      9 C9         -5.3230    2.9860    8.7540 c3        1 77A      0.119700
     10 CL10       -0.4640    5.3890    4.8630 cl        1 77A     -0.088400
     11 C11        -3.4800    0.8310    4.1560 c         1 77A      0.773100
     12 O12        -2.9290    1.4780    3.2460 o         1 77A     -0.566100
     13 N13        -4.2250   -0.3440    3.8760 n         1 77A     -0.550400
     14 C14        -3.8830   -1.2340    2.8380 ca        1 77A      0.462900
     15 N15        -2.6210   -1.2410    2.3060 nb        1 77A     -0.723000
     16 C16        -2.4160   -2.1080    1.2860 ca        1 77A      0.563300
     17 C17        -3.4360   -3.0030    0.8100 ca        1 77A      0.243900
     18 N18        -4.6540   -3.0070    1.3610 nb        1 77A     -0.588000
     19 C19        -4.8930   -2.1370    2.3600 ca        1 77A      0.206900
     20 O20        -1.2090   -2.2300    0.6520 os        1 77A     -0.433100
     21 C21        -0.1890   -1.2340    0.9020 c3        1 77A      0.146100
     22 C22         0.6740   -1.2430   -0.3790 c3        1 77A      0.168800
     23 N23         0.0800   -0.4950   -1.4730 n3        1 77A     -0.743600
     24 C24         0.3990   -1.0340   -2.7740 c3        1 77A      0.161100
     25 C25         0.6440   -1.6580    2.0960 c3        1 77A     -0.120100
     26 C26         0.2950    0.9300   -1.3790 c3        1 77A      0.161100
     27 HN1        -4.0070    0.7760    6.1660 hn        1 77A      0.315500
     28 H3         -1.5300    2.8200    4.3670 ha        1 77A      0.187000
     29 H5         -2.0750    6.1580    7.0800 ha        1 77A      0.150000
     30 H6         -3.8860    4.9380    8.2460 ha        1 77A      0.144000
     31 H91        -5.8590    3.9400    8.5310 h1        1 77A      0.047700
     32 H92        -4.5370    3.1470    9.5310 h1        1 77A      0.047700
     33 H93        -6.0460    2.1950    9.0800 h1        1 77A      0.047700
     34 HN13       -4.7710   -0.7560    4.6000 hn        1 77A      0.317500
     35 H17        -3.2300   -3.6980   -0.0180 h4        1 77A      0.050100
     36 H19        -5.9090   -2.1480    2.7860 h4        1 77A      0.035100
     37 H21        -0.6550   -0.2270    1.0750 h1        1 77A      0.090700
     38 H221        1.6890   -0.8370   -0.0960 h1        1 77A      0.046200
     39 H222        0.8050   -2.3180   -0.6910 h1        1 77A      0.046200
     40 H241        1.4960   -0.9920   -3.0170 h1        1 77A      0.032200
     41 H242       -0.1590   -0.4500   -3.5530 h1        1 77A      0.032200
     42 H243        0.0630   -2.1030   -2.8210 h1        1 77A      0.032200
     43 H251        0.0050   -1.7300    3.0080 hc        1 77A      0.048700
     44 H252        1.1160   -2.6520    1.9110 hc        1 77A      0.048700
     45 H253        1.4450   -0.9030    2.2800 hc        1 77A      0.048700
     46 H261        1.3730    1.2240   -1.5130 h1        1 77A      0.032200
     47 H262       -0.0490    1.2900   -0.3740 h1        1 77A      0.032200
     48 H263       -0.3140    1.4400   -2.1700 h1        1 77A      0.032200
@<TRIPOS>BOND
     1    1    2 1   
     2    1   11 1   
     3    1   27 1   
     4    2    3 ar  
     5    2    7 ar  
     6    3    4 ar  
     7    3   28 1   
     8    4    5 ar  
     9    4   10 1   
    10    5    6 ar  
    11    5   29 1   
    12    6    7 ar  
    13    6   30 1   
    14    7    8 1   
    15    8    9 1   
    16    9   31 1   
    17    9   32 1   
    18    9   33 1   
    19   11   12 2   
    20   11   13 1   
    21   13   14 1   
    22   13   34 1   
    23   14   15 ar  
    24   14   19 ar  
    25   15   16 ar  
    26   16   17 ar  
    27   16   20 1   
    28   17   18 ar  
    29   17   35 1   
    30   18   19 ar  
    31   19   36 1   
    32   20   21 1   
    33   21   22 1   
    34   21   25 1   
    35   21   37 1   
    36   22   23 1   
    37   22   38 1   
    38   22   39 1   
    39   23   24 1   
    40   23   26 1   
    41   24   40 1   
    42   24   41 1   
    43   24   42 1   
    44   25   43 1   
    45   25   44 1   
    46   25   45 1   
    47   26   46 1   
    48   26   47 1   
    49   26   48 1   
@<TRIPOS>SUBSTRUCTURE
     1 77A         1 TEMP              0 ****  ****    0 ROOT
