@<TRIPOS>MOLECULE
77A
   49    50     1     0     0
SMALL
bcc


@<TRIPOS>ATOM
      1 N1         -0.3440   -0.0950    0.3030 n         1 77A     -0.424100
      2 C2          0.9090   -0.7350    0.4620 ca        1 77A      0.007600
      3 C3          1.6270   -0.6410    1.6660 ca        1 77A     -0.094000
      4 C4          2.8890   -1.2290    1.7800 ca        1 77A     -0.008600
      5 C5          3.4670   -1.9050    0.7040 ca        1 77A     -0.079000
      6 C6          2.7730   -2.0040   -0.4990 ca        1 77A     -0.173000
      7 C7          1.5020   -1.4370   -0.6300 ca        1 77A      0.112100
      8 O8          0.7450   -1.5070   -1.7820 os        1 77A     -0.349900
      9 C9          1.3850   -2.0540   -2.9340 c3        1 77A      0.114700
     10 CL10        3.7260   -1.1080    3.2540 cl        1 77A     -0.079400
     11 C11        -1.3620   -0.2500    1.2550 c         1 77A      0.806100
     12 O12        -1.1130   -0.6610    2.4160 o         1 77A     -0.686100
     13 N13        -2.6650    0.1310    0.8670 n         1 77A     -0.554400
     14 C14        -3.7860    0.2810    1.6940 ca        1 77A      0.485900
     15 N15        -3.7190    0.1760    3.0570 nb        1 77A     -0.788000
     16 C16        -4.8880    0.3430    3.7250 ca        1 77A      0.527300
     17 C17        -6.1320    0.6110    3.0790 ca        1 77A      0.273900
     18 N18        -6.1900    0.7120    1.7400 nb        1 77A     -0.557000
     19 C19        -5.0530    0.5590    1.0500 ca        1 77A      0.234900
     20 O20        -4.9570    0.1870    5.0940 os        1 77A     -0.435100
     21 C21        -3.8080    0.5350    5.8840 c3        1 77A      0.137100
     22 C22        -2.9610   -0.7310    6.1160 c3        1 77A      0.073800
     23 N23        -1.9140   -0.9570    5.0770 n4        1 77A     -0.688400
     24 C24        -1.5770   -2.3970    4.9540 c3        1 77A      0.093600
     25 C25        -4.3720    1.0110    7.2140 c3        1 77A     -0.108100
     26 C26        -0.6910   -0.1650    5.3610 c3        1 77A      0.093600
     27 HN1        -0.5990    0.0570   -0.6530 hn        1 77A      0.334500
     28 H3          1.1900   -0.1030    2.5230 ha        1 77A      0.154000
     29 H5          4.4660   -2.3600    0.8000 ha        1 77A      0.165000
     30 H6          3.2350   -2.5390   -1.3430 ha        1 77A      0.159000
     31 H91         2.3110   -1.4800   -3.1800 h1        1 77A      0.057367
     32 H92         0.6140   -1.9290   -3.7370 h1        1 77A      0.057367
     33 H93         1.6160   -3.1340   -2.7720 h1        1 77A      0.057367
     34 HN13       -2.8250    0.3930   -0.0840 hn        1 77A      0.343500
     35 H17        -7.0650    0.7310    3.6550 h4        1 77A      0.071100
     36 H19        -5.1360    0.6550   -0.0480 h4        1 77A      0.054100
     37 H21        -3.2190    1.3570    5.3950 h1        1 77A      0.079700
     38 H221       -2.4560   -0.6640    7.1210 hx        1 77A      0.107700
     39 H222       -3.6570   -1.6200    6.1240 hx        1 77A      0.107700
     40 H241       -0.8350   -2.5140    4.1160 hx        1 77A      0.097867
     41 H242       -2.5050   -2.9770    4.7080 hx        1 77A      0.097867
     42 H243       -1.1380   -2.7710    5.9150 hx        1 77A      0.097867
     43 H251       -3.5400    1.3580    7.8710 hc        1 77A      0.070700
     44 H252       -4.9330    0.1910    7.7220 hc        1 77A      0.070700
     45 H253       -5.0770    1.8600    7.0380 hc        1 77A      0.070700
     46 H261        0.0010   -0.2500    4.4770 hx        1 77A      0.097867
     47 H262       -0.9720    0.9110    5.5090 hx        1 77A      0.097867
     48 H263       -0.1850   -0.5550    6.2820 hx        1 77A      0.097867
     49 H231       -2.2880   -0.6360    4.1450 hn        1 77A      0.515800
@<TRIPOS>BOND
     1    1    2 1   
     2    1   11 1   
     3    1   27 1   
     4    2    3 ar  
     5    2    7 ar  
     6    3    4 ar  
     7    3   28 1   
     8    4    5 ar  
     9    4   10 1   
    10    5    6 ar  
    11    5   29 1   
    12    6    7 ar  
    13    6   30 1   
    14    7    8 1   
    15    8    9 1   
    16    9   31 1   
    17    9   32 1   
    18    9   33 1   
    19   11   12 2   
    20   11   13 1   
    21   13   14 1   
    22   13   34 1   
    23   14   15 ar  
    24   14   19 ar  
    25   15   16 ar  
    26   16   17 ar  
    27   16   20 1   
    28   17   18 ar  
    29   17   35 1   
    30   18   19 ar  
    31   19   36 1   
    32   20   21 1   
    33   21   22 1   
    34   21   25 1   
    35   21   37 1   
    36   22   23 1   
    37   22   38 1   
    38   22   39 1   
    39   23   24 1   
    40   23   26 1   
    41   23   49 1   
    42   24   40 1   
    43   24   41 1   
    44   24   42 1   
    45   25   43 1   
    46   25   44 1   
    47   25   45 1   
    48   26   46 1   
    49   26   47 1   
    50   26   48 1   
@<TRIPOS>SUBSTRUCTURE
     1 77A         1 TEMP              0 ****  ****    0 ROOT
