@<TRIPOS>MOLECULE
77A
   49    50     1     0     0
SMALL
bcc


@<TRIPOS>ATOM
      1 N1         -0.3490   -0.1180    0.2960 ns        1 77A     -0.424100
      2 C2          0.9200   -0.7210    0.4730 ca        1 77A      0.007600
      3 C3          1.6310   -0.5790    1.6770 ca        1 77A     -0.094000
      4 C4          2.9070   -1.1310    1.8090 ca        1 77A     -0.008600
      5 C5          3.5070   -1.8180    0.7510 ca        1 77A     -0.079000
      6 C6          2.8200   -1.9640   -0.4510 ca        1 77A     -0.173000
      7 C7          1.5360   -1.4330   -0.6000 ca        1 77A      0.112100
      8 O8          0.7840   -1.5500   -1.7520 os        1 77A     -0.349900
      9 C9          1.4430   -2.1080   -2.8890 c3        1 77A      0.114700
     10 Cl10        3.7360   -0.9530    3.2820 cl        1 77A     -0.079400
     11 C11        -1.3660   -0.2780    1.2470 c         1 77A      0.806100
     12 O12        -1.1110   -0.6550    2.4190 o         1 77A     -0.686100
     13 N13        -2.6770    0.0600    0.8460 ns        1 77A     -0.554400
     14 C14        -3.8040    0.2000    1.6660 ca        1 77A      0.485900
     15 N15        -3.7390    0.1300    3.0310 nb        1 77A     -0.788000
     16 C16        -4.9150    0.2820    3.6910 ca        1 77A      0.527300
     17 C17        -6.1630    0.5010    3.0350 ca        1 77A      0.273900
     18 N18        -6.2190    0.5700    1.6950 nb        1 77A     -0.557000
     19 C19        -5.0760    0.4290    1.0110 ca        1 77A      0.234900
     20 O20        -4.9850    0.1570    5.0640 os        1 77A     -0.435100
     21 C21        -3.8480    0.5520    5.8490 c3        1 77A      0.137100
     22 C22        -2.9700   -0.6860    6.1130 c3        1 77A      0.073800
     23 N23        -1.9140   -0.9090    5.0830 nx        1 77A     -0.688400
     24 C24        -1.5400   -2.3430    4.9950 c3        1 77A      0.093600
     25 C25        -4.4290    1.0460    7.1650 c3        1 77A     -0.108100
     26 C26        -0.7120   -0.0800    5.3520 c3        1 77A      0.093600
     27 HN1        -0.6040    0.0040   -0.6650 hn        1 77A      0.334500
     28 H3          1.1760   -0.0330    2.5190 ha        1 77A      0.154000
     29 H5          4.5170   -2.2430    0.8610 ha        1 77A      0.165000
     30 H6          3.3000   -2.5060   -1.2810 ha        1 77A      0.159000
     31 H91         0.6720   -2.0230   -3.6960 h1        1 77A      0.057367
     32 H92         1.7010   -3.1780   -2.7000 h1        1 77A      0.057367
     33 H93         2.3550   -1.5170   -3.1460 h1        1 77A      0.057367
     34 HN13       -2.8400    0.2950   -0.1110 hn        1 77A      0.343500
     35 H17        -7.1010    0.6110    3.6060 h4        1 77A      0.071100
     36 H19        -5.1570    0.4980   -0.0880 h4        1 77A      0.054100
     37 H21        -3.2780    1.3770    5.3420 h1        1 77A      0.079700
     38 H221       -3.6430   -1.5920    6.1400 hx        1 77A      0.107700
     39 H222       -2.4710   -0.5820    7.1170 hx        1 77A      0.107700
     40 H241       -2.4520   -2.9520    4.7600 hx        1 77A      0.097867
     41 H242       -1.0950   -2.6830    5.9660 hx        1 77A      0.097867
     42 H243       -0.7920   -2.4600    4.1620 hx        1 77A      0.097867
     43 H251       -4.9700    0.2230    7.6910 hc        1 77A      0.070700
     44 H252       -3.6080    1.4290    7.8160 hc        1 77A      0.070700
     45 H253       -5.1550    1.8720    6.9670 hc        1 77A      0.070700
     46 H261       -1.0210    0.9920    5.4730 hx        1 77A      0.097867
     47 H262       -0.0150   -0.1690    4.4720 hx        1 77A      0.097867
     48 H263       -0.2000   -0.4350    6.2840 hx        1 77A      0.097867
     49 H231       -2.2920   -0.6200    4.1430 hn        1 77A      0.515800
@<TRIPOS>BOND
     1    1    2 1   
     2    1   11 1   
     3    1   27 1   
     4    2    3 ar  
     5    2    7 ar  
     6    3    4 ar  
     7    3   28 1   
     8    4    5 ar  
     9    4   10 1   
    10    5    6 ar  
    11    5   29 1   
    12    6    7 ar  
    13    6   30 1   
    14    7    8 1   
    15    8    9 1   
    16    9   31 1   
    17    9   32 1   
    18    9   33 1   
    19   11   12 2   
    20   11   13 1   
    21   13   14 1   
    22   13   34 1   
    23   14   15 ar  
    24   14   19 ar  
    25   15   16 ar  
    26   16   17 ar  
    27   16   20 1   
    28   17   18 ar  
    29   17   35 1   
    30   18   19 ar  
    31   19   36 1   
    32   20   21 1   
    33   21   22 1   
    34   21   25 1   
    35   21   37 1   
    36   22   23 1   
    37   22   38 1   
    38   22   39 1   
    39   23   24 1   
    40   23   26 1   
    41   23   49 1   
    42   24   40 1   
    43   24   41 1   
    44   24   42 1   
    45   25   43 1   
    46   25   44 1   
    47   25   45 1   
    48   26   46 1   
    49   26   47 1   
    50   26   48 1   
@<TRIPOS>SUBSTRUCTURE
     1 77A         1 TEMP              0 ****  ****    0 ROOT
