@<TRIPOS>MOLECULE
77A
   48    45     1     0     0
SMALL
bcc


@<TRIPOS>ATOM
      1 N1          0.9160    2.7140   -2.9220 n         1 77A     -0.290000
      2 C2          0.2860    3.5060   -3.9310 c2        1 77A      0.041000
      3 C3         -0.8770    4.2150   -3.6330 c2        1 77A     -0.096000
      4 C4         -1.4520    5.0370   -4.5850 c1        1 77A     -0.075000
      5 C5         -0.8730    5.1590   -5.8400 c2        1 77A     -0.105000
      6 C6          0.2790    4.4590   -6.1400 c1        1 77A     -0.178000
      7 C7          0.8620    3.6250   -5.1720 c1        1 77A      0.043000
      8 O8          2.0930    2.9550   -5.4570 os        1 77A     -0.230000
      9 C9          2.0060    2.0100   -6.5540 c3        1 77A     -0.071000
     10 CL10       -2.9290    5.8720   -4.2230 cl        1 77A     -0.007000
     11 C11         0.1730    1.7130   -2.2370 c2        1 77A      0.389000
     12 O12        -1.0270    1.5280   -2.5170 o         1 77A     -0.363000
     13 N13         0.7900    0.9590   -1.1680 n         1 77A     -0.297000
     14 C14        -0.0080   -0.0350   -0.4100 c2        1 77A      0.096000
     15 N15         0.3710   -0.3940    0.8260 n2        1 77A     -0.180000
     16 C16        -0.2920   -1.3500    1.4730 c1        1 77A      0.111000
     17 C17        -1.4080   -1.9930    0.8500 c2        1 77A     -0.197000
     18 N18        -1.7820   -1.6340   -0.3790 n1        1 77A     -0.064000
     19 C19        -1.1170   -0.6760   -1.0280 c1        1 77A     -0.142000
     20 O20         0.1260   -1.7490    2.7940 o         1 77A     -0.193000
     21 C21        -0.7780   -2.6440    3.4420 c3        1 77A      0.033000
     22 C22        -0.7170   -2.4220    4.9470 c3        1 77A     -0.061000
     23 N23         0.5130   -3.0420    5.4950 n3        1 77A     -0.267000
     24 C24         0.1570   -4.0790    6.4000 c3        1 77A     -0.122000
     25 C25        -0.4100   -4.0440    3.1330 c3        1 77A     -0.236000
     26 C26         1.2690   -2.0590    6.1780 c3        1 77A     -0.122000
     27 HN1         1.8020    2.8410   -2.7260 hn        1 77A      0.235000
     28 H3         -1.2860    4.1300   -2.7510 ha        1 77A      0.185000
     29 H5         -1.2730    5.7300   -6.4990 ha        1 77A      0.151000
     30 H6          0.7020    4.5480   -7.0550 ha        1 77A      0.144000
     31 H91         1.7310    1.1110   -6.1990 h1        1 77A      0.087667
     32 H92         2.9030    1.9340   -7.0040 h1        1 77A      0.087667
     33 H93         1.2950    2.3440   -7.2460 h1        1 77A      0.087667
     34 HN13        1.6230    1.1500   -0.9120 hn        1 77A      0.238000
     35 H17        -1.8920   -2.6890    1.3190 h4        1 77A      0.175000
     36 H19        -1.3820   -0.4240   -1.8920 ha        1 77A      0.208000
     37 H21        -1.6960   -2.4700    3.1220 h1        1 77A      0.084000
     38 H221       -0.7050   -1.4450    5.1360 h1        1 77A      0.085500
     39 H222       -1.5110   -2.8320    5.3720 h1        1 77A      0.085500
     40 H241       -0.4490   -3.7220    7.0860 h1        1 77A      0.074667
     41 H242        0.9220   -4.4090    6.8070 h1        1 77A      0.074667
     42 H243       -0.3050   -4.8230    5.8950 h1        1 77A      0.074667
     43 H251       -0.9990   -4.3880    2.4070 hc        1 77A      0.093667
     44 H252        0.5280   -4.0830    2.8410 hc        1 77A      0.093667
     45 H253       -0.5310   -4.6200    3.9690 hc        1 77A      0.093667
     46 H261        2.1240   -2.4520    6.4880 h1        1 77A      0.074667
     47 H262        1.4520   -1.3210    5.5760 h1        1 77A      0.074667
     48 H263        0.7760   -1.7410    6.9250 h1        1 77A      0.074667
@<TRIPOS>BOND
     1    1    2 1   
     2    1   11 1   
     3    1   27 1   
     4    2    3 1   
     5    2    7 1   
     6    3    4 1   
     7    3   28 1   
     8    4    5 1   
     9    5    6 1   
    10    5   29 1   
    11    6   30 1   
    12    7    8 1   
    13    8    9 1   
    14    9   31 1   
    15    9   32 1   
    16    9   33 1   
    17   11   12 1   
    18   11   13 1   
    19   13   14 1   
    20   13   34 1   
    21   14   15 1   
    22   14   19 1   
    23   15   16 1   
    24   16   17 1   
    25   17   18 1   
    26   17   35 1   
    27   19   36 1   
    28   20   21 1   
    29   21   22 1   
    30   21   25 1   
    31   21   37 1   
    32   22   23 1   
    33   22   38 1   
    34   22   39 1   
    35   23   24 1   
    36   23   26 1   
    37   24   40 1   
    38   24   41 1   
    39   24   42 1   
    40   25   43 1   
    41   25   44 1   
    42   25   45 1   
    43   26   46 1   
    44   26   47 1   
    45   26   48 1   
@<TRIPOS>SUBSTRUCTURE
     1 77A         1 TEMP              0 ****  ****    0 ROOT
