@<TRIPOS>MOLECULE
77B
   75    73     1     0     0
SMALL
bcc


@<TRIPOS>ATOM
      1 C14        82.3900  110.0280   24.7390 c2        1 77B     -0.277000
      2 C13        81.1570  110.0350   24.0570 c1        1 77B     -0.087000
      3 C12        77.1290  105.2580   24.2650 cx        1 77B     -0.235000
      4 C11        78.2250  105.5910   23.4700 c2        1 77B      0.213000
      5 C10        78.9710  106.7420   23.6290 c1        1 77B     -0.346000
      6 C15        83.1750  111.1150   24.9050 c2        1 77B     -0.011000
      7 C20      -345.4810 -458.7750  -69.8770 c2        1 77B     -0.186000
      8 C19      -344.9240 -459.3120  -71.0340 c2        1 77B      0.098000
      9 C18      -343.5360 -459.0610  -71.3790 c2        1 77B     -0.223000
     10 C17      -343.0200 -459.5780  -72.5160 c2        1 77B     -0.026000
     11 N3         65.0990  109.5770   21.5870 n         1 77B     -0.401000
     12 C16        66.0010  108.5960   21.8690 c2        1 77B      0.314000
     13 C2         66.2790  107.5780   20.7830 cx        1 77B     -0.033000
     14 O1         66.8620  108.0760   19.5710 os        1 77B     -0.198000
     15 C3         67.7090  107.3060   20.4360 cx        1 77B     -0.079000
     16 O4         67.3730  105.1850   19.2630 o         1 77B     -0.181000
     17 O2         66.5680  108.4980   22.9750 o         1 77B     -0.355000
     18 C23      -342.6620 -458.1710  -70.5190 c3        1 77B     -0.089000
     19 C22      -343.1910 -458.0690  -69.0950 c2        1 77B     -0.102000
     20 C21      -344.4920 -458.1890  -69.1260 c1        1 77B      0.214000
     21 N1         69.4610  105.5140   20.2050 n4        1 77B     -0.130000
     22 C5         71.8430  103.4060   23.8760 c2        1 77B     -0.243000
     23 O5         71.5070  104.5090   21.7870 o         1 77B     -0.371000
     24 C24        72.8740  102.9000   24.5640 c2        1 77B     -0.039000
     25 C26        76.6390  103.7780   24.2980 cx        1 77B     -0.114000
     26 C25        72.7480  101.7210   25.4410 c3        1 77B     -0.213000
     27 C27        75.8990  104.6990   23.4680 cu        1 77B     -0.375000
     28 N2         72.4320  105.8660   23.4300 n4        1 77B      0.095000
     29 C7         71.3740  106.5670   24.1690 c2        1 77B     -0.513000
     30 C8         70.2870  107.1410   23.5230 c2        1 77B      0.392000
     31 O7         69.3960  107.8370   24.2900 oh        1 77B     -0.292000
     32 C9         79.6360  107.7450   23.7620 c1        1 77B     -0.040000
     33 O6         69.9890  107.0910   22.2820 o         1 77B     -0.657000
     34 C30        71.7960  106.7720   25.5910 c3        1 77B     -0.035000
     35 C29        73.2210  106.2790   25.5870 c2        1 77B     -0.152000
     36 C28        73.5670  105.7660   24.3870 c2        1 77B     -0.291000
     37 H14        84.1350  111.0720   25.4430 ha        1 77B      0.134000
     38 H13        82.7140  109.0540   25.1540 ha        1 77B      0.156000
     39 H12        80.7920  110.9820   23.6330 ha        1 77B      0.073000
     40 H11        78.5050  104.9260   22.6260 ha        1 77B      0.146000
     41 H15        82.9010  112.1070   24.5120 ha        1 77B      0.134000
     42 H171       64.8870  110.2580   22.2760 hn        1 77B      0.246000
     43 H172     -341.9760 -459.3980  -72.8210 ha        1 77B      0.159500
     44 HN3      -343.6080 -460.2140  -73.1980 ha        1 77B      0.159500
     45 H2         65.4920  106.8080   20.6420 h1        1 77B      0.179000
     46 H3         68.5240  107.8750   20.9510 h1        1 77B      0.233000
     47 H23      -341.6290 -458.6130  -70.4270 hc        1 77B      0.161500
     48 H22      -342.5650 -457.1550  -70.9920 hc        1 77B      0.161500
     49 H21      -342.4960 -457.9610  -68.2490 ha        1 77B      0.242000
     50 HN1        69.6070  105.4990   21.2470 hn        1 77B      0.281333
     51 H5         70.8310  102.9650   23.9240 ha        1 77B      0.167000
     52 H24        69.6600  104.5870   19.8220 hn        1 77B      0.281333
     53 H261       77.2940  102.9940   23.8700 hc        1 77B      0.112500
     54 H262       73.8900  103.3380   24.4970 ha        1 77B      0.158000
     55 H251       73.0450  101.9980   26.4850 hc        1 77B      0.103333
     56 H252       73.4350  100.9090   25.0880 hc        1 77B      0.103333
     57 H253       71.7060  101.3170   25.4650 hc        1 77B      0.103333
     58 H271       75.9290  104.6570   22.3750 ha        1 77B      0.097000
     59 H272       76.2410  103.4860   25.2910 hc        1 77B      0.112500
     60 H273       74.6280  105.3130   23.9770 hx        1 77B      0.322000
     61 H7         72.7150  106.4150   22.6110 hn        1 77B      0.225000
     62 H91        80.2730  108.6890   23.8880 ha        1 77B      0.335000
     63 H92        68.6680  108.1480   23.7200 ho        1 77B      0.252000
     64 H301       67.1390  108.2250   25.3440 ha        1 77B      0.003000
     65 H302       67.2840  108.8850   25.2850 ha        1 77B      0.003000
     66 H291       71.7300  107.8530   25.8760 hc        1 77B      0.104000
     67 H292       71.1650  106.1830   26.3040 hc        1 77B      0.104000
     68 H281       76.9090  105.8860   25.1490 hc        1 77B      0.162000
     69 H282       73.8620  106.3580   26.4660 ha        1 77B      0.159000
     70 H20      -346.5610 -458.7360  -69.6680 ha        1 77B      0.235000
     71 H32        64.7120  109.6720   20.6820 hn        1 77B      0.246000
     72 H121       70.1390  106.1960   19.8500 hn        1 77B      0.281333
     73 C6         71.9190  104.5450   22.9570 c2        1 77B      0.363000
     74 C4         68.0720  105.9620   19.8990 c2        1 77B      0.275000
     75 H19      -345.5750 -459.8130  -71.7750 ha        1 77B      0.196000
@<TRIPOS>BOND
     1    1    2 1   
     2    1    6 1   
     3    1   38 1   
     4    2   39 1   
     5    3    4 1   
     6    3   25 1   
     7    3   27 1   
     8    3   68 1   
     9    4    5 1   
    10    4   40 1   
    11    5   32 1   
    12    6   37 1   
    13    6   41 1   
    14    7    8 1   
    15    7   20 1   
    16    7   70 1   
    17    8    9 1   
    18    8   75 1   
    19    9   10 1   
    20    9   18 1   
    21   10   43 1   
    22   10   44 1   
    23   11   12 1   
    24   11   42 1   
    25   11   71 1   
    26   12   13 1   
    27   12   17 1   
    28   13   14 1   
    29   13   15 1   
    30   13   45 1   
    31   14   15 1   
    32   15   46 1   
    33   15   74 1   
    34   16   74 1   
    35   18   19 1   
    36   18   47 1   
    37   18   48 1   
    38   19   20 1   
    39   19   49 1   
    40   21   50 1   
    41   21   52 1   
    42   21   72 1   
    43   21   74 1   
    44   22   24 1   
    45   22   51 1   
    46   22   73 1   
    47   23   73 1   
    48   24   26 1   
    49   24   54 1   
    50   25   27 1   
    51   25   53 1   
    52   25   59 1   
    53   26   55 1   
    54   26   56 1   
    55   26   57 1   
    56   27   58 1   
    57   28   29 1   
    58   28   36 1   
    59   28   61 1   
    60   28   73 1   
    61   29   30 1   
    62   29   34 1   
    63   30   31 1   
    64   30   33 1   
    65   31   63 1   
    66   32   62 1   
    67   34   35 1   
    68   34   66 1   
    69   34   67 1   
    70   35   36 1   
    71   35   69 1   
    72   36   60 1   
    73   64   65 1   
@<TRIPOS>SUBSTRUCTURE
     1 77B         1 TEMP              0 ****  ****    0 ROOT
