@<TRIPOS>MOLECULE
77B
   75    73     1     0     0
SMALL
bcc


@<TRIPOS>ATOM
      1 C14         2.5860    1.8860    5.9900 c1        1 77B      0.350000
      2 C13         2.4970    1.3130    4.7970 c2        1 77B     -0.529000
      3 C12         1.2820    1.3420    4.0640 c1        1 77B     -0.062000
      4 C11         1.2190    0.6800    2.7640 c3        1 77B     -0.174000
      5 C10         0.1480    1.2360    1.8890 c2        1 77B     -0.141000
      6 C15         0.4180    1.7810    0.6980 c2        1 77B     -0.156000
      7 C20       -15.2960   -5.5710    4.5080 c3        1 77B     -0.268000
      8 C19       -14.6910   -4.3030    4.9450 c2        1 77B      0.107000
      9 C18       -13.3170   -4.1580    4.9960 c2        1 77B     -0.286000
     10 C17       -12.8360   -2.8900    5.4330 c1        1 77B      0.083000
     11 N3         -9.7320   -1.3860    5.9610 n8        1 77B     -0.259000
     12 C2         -8.4730    1.0870    6.9390 c1        1 77B      0.133000
     13 O1         -8.8970    2.2960    7.2460 os        1 77B     -0.143000
     14 C3         -7.4830    2.0060    7.5880 c3        1 77B     -0.193000
     15 O4         -5.2260    2.5340    7.0850 o         1 77B     -0.428000
     16 O2        -11.4380   -2.8080    5.4640 os        1 77B     -0.191000
     17 C23       -12.4680   -5.2710    4.6140 c2        1 77B     -0.044000
     18 C22       -13.0010   -6.4510    4.2070 c2        1 77B     -0.206000
     19 C21       -14.4110   -6.6670    4.1300 c1        1 77B     -0.013000
     20 N1         -6.7980    3.7320    5.9460 nt        1 77B     -0.392000
     21 C5         -2.6700    4.6740    8.5660 c3        1 77B     -0.159000
     22 O5         -3.9290    4.8160    6.4140 o         1 77B     -0.200000
     23 C24        -1.6790    3.6120    8.9140 c2        1 77B     -0.133000
     24 C26         0.1310    1.1790    8.8830 c2        1 77B     -0.115000
     25 C25        -5.6740    3.6990   10.4680 c3        1 77B     -0.282000
     26 C27        -0.7190    1.4980    7.9010 c2        1 77B     -0.189000
     27 N2         -2.3710    3.0360    6.7380 nx        1 77B     -0.050000
     28 C7         -1.6560    3.2380    5.4260 c3        1 77B     -0.059000
     29 C8         -1.6870    1.9530    4.5960 c2        1 77B      0.324000
     30 O7         -1.5420    2.2200    3.2800 os        1 77B     -0.241000
     31 C9         -1.2560    1.1180    2.3840 c3        1 77B      0.033000
     32 O6         -1.9220    0.8190    5.0170 o         1 77B     -0.356000
     33 C30        -0.2130    3.7330    5.5370 c3        1 77B     -0.176000
     34 C29        -0.1380    5.1990    5.8630 c3        1 77B     -0.225000
     35 C28        -1.5160    2.7070    7.9130 c2        1 77B     -0.033000
     36 H14        -0.3660    2.1850    0.0430 ha        1 77B      0.131000
     37 H13         3.4060    0.8180    4.3810 ha        1 77B      0.195000
     38 H12         0.9900   -0.4100    2.9810 hc        1 77B      0.126500
     39 H11         2.2040    0.6910    2.2140 hc        1 77B      0.126500
     40 H15         1.4400    1.8490    0.2990 ha        1 77B      0.131000
     41 H171       -9.3280   -4.2890    5.3200 ha        1 77B      0.003000
     42 H172       -9.3290   -4.0610    4.6820 ha        1 77B      0.003000
     43 HN3        -9.3410   -0.4910    6.2750 hn        1 77B      0.299500
     44 H2        -11.7990   -0.8150    6.1500 h5        1 77B      0.250000
     45 H3         -7.2940    1.9670    8.6840 h1        1 77B      0.208000
     46 H23       -11.3780   -5.1130    4.6700 ha        1 77B      0.139000
     47 H22       -12.3540   -7.2980    3.9160 ha        1 77B      0.175000
     48 H21       -15.9880   -5.9650    5.3210 hc        1 77B      0.209000
     49 HN1        -7.7450    4.0100    5.8470 hn        1 77B      0.254500
     50 H5         -3.5560    4.6640    9.2630 hc        1 77B      0.179500
     51 H24        -6.6230    3.3140   10.9030 hc        1 77B      0.070750
     52 H261       -6.0950    4.2970    5.5230 hn        1 77B      0.254500
     53 H262       -4.8230    3.3730   11.1050 hc        1 77B      0.070750
     54 H251       -1.1760    3.5930    9.8860 ha        1 77B      0.204000
     55 H252       -5.5470    3.2960    9.4380 hc        1 77B      0.070750
     56 H253       -5.7100    4.8100   10.4360 hc        1 77B      0.070750
     57 H271        0.3090    1.8110    9.7650 ha        1 77B      0.140000
     58 H272       -0.8560    0.8260    7.0300 ha        1 77B      0.176000
     59 H273        0.7120    0.2440    8.8530 ha        1 77B      0.140000
     60 H7         -3.0580    2.2680    6.6180 hn        1 77B      0.291000
     61 H91        -2.0030    1.2640    1.5550 h1        1 77B      0.118500
     62 H92        -1.4280    0.1360    2.8970 h1        1 77B      0.118500
     63 H301       -2.2600    4.0130    4.8540 hx        1 77B      0.170000
     64 H302        0.2700    3.5300    4.5340 hc        1 77B      0.144000
     65 H291        0.3620    3.1240    6.2870 hc        1 77B      0.144000
     66 H292        0.9330    5.5110    5.9460 hc        1 77B      0.089000
     67 H281       -0.6180    5.8150    5.0640 hc        1 77B      0.089000
     68 H282       -0.6420    5.4230    6.8360 hc        1 77B      0.089000
     69 H20       -15.9880   -5.3800    3.6260 hc        1 77B      0.209000
     70 H32        -9.0830   -2.1130    5.7150 hn        1 77B      0.299500
     71 H121       -2.2230    5.7050    8.5720 hc        1 77B      0.179500
     72 C6         -3.1230    4.3080    7.1710 c2        1 77B      0.302000
     73 C4         -6.4320    2.7820    6.8480 c2        1 77B      0.346000
     74 C16       -11.0270   -1.5820    5.8890 c2        1 77B      0.287000
     75 H19       -15.3570   -3.4690    5.2320 ha        1 77B      0.164000
@<TRIPOS>BOND
     1    1    2 1   
     2    2    3 1   
     3    2   37 1   
     4    3    4 1   
     5    4    5 1   
     6    4   38 1   
     7    4   39 1   
     8    5    6 1   
     9    5   31 1   
    10    6   36 1   
    11    6   40 1   
    12    7    8 1   
    13    7   19 1   
    14    7   48 1   
    15    7   69 1   
    16    8    9 1   
    17    8   75 1   
    18    9   10 1   
    19    9   17 1   
    20   10   16 1   
    21   11   43 1   
    22   11   70 1   
    23   11   74 1   
    24   12   13 1   
    25   12   14 1   
    26   13   14 1   
    27   14   45 1   
    28   14   73 1   
    29   15   73 1   
    30   16   74 1   
    31   17   18 1   
    32   17   46 1   
    33   18   19 1   
    34   18   47 1   
    35   20   49 1   
    36   20   52 1   
    37   20   73 1   
    38   21   23 1   
    39   21   50 1   
    40   21   71 1   
    41   21   72 1   
    42   22   72 1   
    43   23   35 1   
    44   23   54 1   
    45   24   26 1   
    46   24   57 1   
    47   24   59 1   
    48   25   51 1   
    49   25   53 1   
    50   25   55 1   
    51   25   56 1   
    52   26   35 1   
    53   26   58 1   
    54   27   28 1   
    55   27   35 1   
    56   27   60 1   
    57   27   72 1   
    58   28   29 1   
    59   28   33 1   
    60   28   63 1   
    61   29   30 1   
    62   29   32 1   
    63   30   31 1   
    64   31   61 1   
    65   31   62 1   
    66   33   34 1   
    67   33   64 1   
    68   33   65 1   
    69   34   66 1   
    70   34   67 1   
    71   34   68 1   
    72   41   42 1   
    73   44   74 1   
@<TRIPOS>SUBSTRUCTURE
     1 77B         1 TEMP              0 ****  ****    0 ROOT
