@<TRIPOS>MOLECULE
77B
   73    76     1     0     0
SMALL
bcc


@<TRIPOS>ATOM
      1 C14        -7.8500    1.0720   -3.4840 ca        1 77B     -0.132000
      2 C13        -9.1860    1.2280   -3.1160 ca        1 77B     -0.124000
      3 C12        -9.5650    1.0600   -1.7840 ca        1 77B     -0.132000
      4 C11        -8.6110    0.7350   -0.8210 ca        1 77B     -0.112000
      5 C10        -7.2690    0.5850   -1.1870 ca        1 77B     -0.095300
      6 C15        -6.8910    0.7540   -2.5220 ca        1 77B     -0.112000
      7 C20         9.5780    2.1380   -0.0860 ca        1 77B     -0.132500
      8 C19         8.4820    2.5090   -0.8650 ca        1 77B     -0.115500
      9 C18         7.2630    2.8150   -0.2560 ca        1 77B     -0.128300
     10 C17         6.0820    3.2460   -1.0800 c3        1 77B      0.132300
     11 N3          5.0630    2.2420   -1.2400 n         1 77B     -0.544900
     12 C16         4.0070    2.1260   -0.3650 c         1 77B      0.661100
     13 C2          3.0550    0.9730   -0.5640 cx        1 77B     -0.010900
     14 O1          3.4890   -0.1220   -1.3870 os        1 77B     -0.370600
     15 C3          3.3610   -0.3610    0.0220 cx        1 77B      0.014100
     16 O4          2.4010   -2.5500    0.2040 o         1 77B     -0.579100
     17 O2          3.7780    2.9620    0.5320 o         1 77B     -0.596100
     18 C23         7.1440    2.7440    1.1370 ca        1 77B     -0.115500
     19 C22         8.2400    2.3710    1.9120 ca        1 77B     -0.132500
     20 C21         9.4580    2.0680    1.3020 ca        1 77B     -0.122000
     21 N1          1.1990   -0.8030    1.1080 n         1 77B     -0.536900
     22 C5          0.0250   -1.5880    1.3920 c3        1 77B      0.044700
     23 O5         -1.1790   -0.1630   -0.1960 o         1 77B     -0.612100
     24 C24        -0.4960   -1.4290    2.8430 c3        1 77B     -0.065700
     25 C26        -0.4750   -0.0140    3.4000 c3        1 77B     -0.075400
     26 C25         0.3050   -2.3420    3.7530 c3        1 77B     -0.095100
     27 C27        -1.3910    0.9360    2.6750 c3        1 77B     -0.114100
     28 N2         -2.1030   -2.2050    0.1940 n         1 77B     -0.472800
     29 C7         -3.2930   -1.9320   -0.5910 c3        1 77B      0.072700
     30 C8         -4.2900   -1.0340    0.1360 c         1 77B      0.621100
     31 O7         -5.2680   -0.5910   -0.7090 os        1 77B     -0.439900
     32 C9         -6.2590    0.2840   -0.1320 c3        1 77B      0.184700
     33 O6         -4.3230   -0.6830    1.3150 o         1 77B     -0.534000
     34 C30        -3.9540   -3.2980   -0.8920 c3        1 77B     -0.080400
     35 C29        -3.2450   -4.3170   -0.0060 c3        1 77B     -0.092400
     36 C28        -2.0430   -3.5880    0.6210 c3        1 77B      0.094000
     37 H14        -7.5490    1.2020   -4.5340 ha        1 77B      0.133000
     38 H13        -9.9400    1.4820   -3.8750 ha        1 77B      0.132000
     39 H12       -10.6180    1.1820   -1.4920 ha        1 77B      0.133000
     40 H11        -8.9140    0.5990    0.2280 ha        1 77B      0.139000
     41 H15        -5.8360    0.6260   -2.8070 ha        1 77B      0.139000
     42 H19         8.5810    2.5650   -1.9600 ha        1 77B      0.141000
     43 H171        6.4320    3.5370   -2.1130 h1        1 77B      0.071200
     44 H172        5.6140    4.1520   -0.5940 h1        1 77B      0.071200
     45 HN3         5.2730    1.4650   -1.8250 hn        1 77B      0.324500
     46 H2          2.0110    1.3060   -0.7460 h1        1 77B      0.135700
     47 H3          4.3190   -0.5570    0.5470 h1        1 77B      0.127700
     48 H23         6.1780    2.9870    1.6100 ha        1 77B      0.141000
     49 H22         8.1450    2.3180    3.0070 ha        1 77B      0.133500
     50 H21        10.3230    1.7750    1.9140 ha        1 77B      0.132000
     51 HN1         1.0730    0.1850    1.1220 hn        1 77B      0.329500
     52 H5          0.3080   -2.6790    1.2480 h1        1 77B      0.100700
     53 H24        -1.5690   -1.7790    2.8440 hc        1 77B      0.068700
     54 H261        0.5720    0.3880    3.4080 hc        1 77B      0.042700
     55 H262       -0.7990   -0.0750    4.4760 hc        1 77B      0.042700
     56 H251       -0.0860   -2.2790    4.7980 hc        1 77B      0.040033
     57 H252        0.2290   -3.4030    3.4130 hc        1 77B      0.040033
     58 H253        1.3810   -2.0470    3.7590 hc        1 77B      0.040033
     59 H271       -2.4040    0.4840    2.5290 hc        1 77B      0.046700
     60 H272       -1.5040    1.8790    3.2630 hc        1 77B      0.046700
     61 H273       -0.9830    1.1980    1.6680 hc        1 77B      0.046700
     62 H7         -3.0050   -1.3910   -1.5410 h1        1 77B      0.106700
     63 H91        -6.7190   -0.2280    0.7540 h1        1 77B      0.062700
     64 H92        -5.7420    1.2210    0.2100 h1        1 77B      0.062700
     65 H301       -3.8150   -3.5430   -1.9740 hc        1 77B      0.068200
     66 H302       -5.0510   -3.2620   -0.6850 hc        1 77B      0.068200
     67 H291       -2.8980   -5.1960   -0.6030 hc        1 77B      0.059700
     68 H292       -3.9280   -4.6910    0.7960 hc        1 77B      0.059700
     69 H281       -1.0770   -4.0530    0.2740 h1        1 77B      0.052200
     70 H282       -2.0790   -3.6500    1.7440 h1        1 77B      0.052200
     71 C6         -1.1230   -1.2550    0.4030 c         1 77B      0.655100
     72 C4          2.2740   -1.3310    0.4180 c         1 77B      0.671100
     73 H20        10.5370    1.9000   -0.5690 ha        1 77B      0.133500
@<TRIPOS>BOND
     1    1    2 ar  
     2    1    6 ar  
     3    1   37 1   
     4    2    3 ar  
     5    2   38 1   
     6    3    4 ar  
     7    3   39 1   
     8    4    5 ar  
     9    4   40 1   
    10    5    6 ar  
    11    5   32 1   
    12    6   41 1   
    13    7    8 ar  
    14    7   20 ar  
    15    7   73 1   
    16    8    9 ar  
    17    8   42 1   
    18    9   10 1   
    19    9   18 ar  
    20   10   11 1   
    21   10   43 1   
    22   10   44 1   
    23   11   12 1   
    24   11   45 1   
    25   12   13 1   
    26   12   17 2   
    27   13   14 1   
    28   13   15 1   
    29   13   46 1   
    30   14   15 1   
    31   15   47 1   
    32   15   72 1   
    33   16   72 2   
    34   18   19 ar  
    35   18   48 1   
    36   19   20 ar  
    37   19   49 1   
    38   20   50 1   
    39   21   22 1   
    40   21   51 1   
    41   21   72 1   
    42   22   24 1   
    43   22   52 1   
    44   22   71 1   
    45   23   71 2   
    46   24   25 1   
    47   24   26 1   
    48   24   53 1   
    49   25   27 1   
    50   25   54 1   
    51   25   55 1   
    52   26   56 1   
    53   26   57 1   
    54   26   58 1   
    55   27   59 1   
    56   27   60 1   
    57   27   61 1   
    58   28   29 1   
    59   28   36 1   
    60   28   71 1   
    61   29   30 1   
    62   29   34 1   
    63   29   62 1   
    64   30   31 1   
    65   30   33 2   
    66   31   32 1   
    67   32   63 1   
    68   32   64 1   
    69   34   35 1   
    70   34   65 1   
    71   34   66 1   
    72   35   36 1   
    73   35   67 1   
    74   35   68 1   
    75   36   69 1   
    76   36   70 1   
@<TRIPOS>SUBSTRUCTURE
     1 77B         1 TEMP              0 ****  ****    0 ROOT
