@<TRIPOS>MOLECULE
77B
   73    70     1     0     0
SMALL
bcc


@<TRIPOS>ATOM
      1 C14         6.3360   -0.7400   -6.9350 c1        1 77B     -0.068250
      2 C13         5.7500   -1.2500   -8.0870 c1        1 77B     -0.068250
      3 C12         4.4610   -1.7710   -8.0390 c1        1 77B     -0.068250
      4 C11         3.7590   -1.7820   -6.8390 c1        1 77B     -0.050500
      5 C10         4.3450   -1.2720   -5.6870 c1        1 77B     -0.090100
      6 C15         5.6340   -0.7510   -5.7340 c1        1 77B     -0.068250
      7 C20        -4.4520   -2.4620    3.8740 c1        1 77B     -0.068250
      8 C19        -5.1210   -1.2420    3.8980 c1        1 77B     -0.068250
      9 C18        -4.7440   -0.2590    4.8070 c1        1 77B     -0.097100
     10 C17        -5.4770    1.0870    4.8290 c3        1 77B      0.092100
     11 N3         -5.2410    1.7820    3.5930 n         1 77B     -0.539900
     12 C16        -4.5070    3.0130    3.5930 c         1 77B      0.659100
     13 C2         -3.0520    2.9940    3.5530 cx        1 77B      0.008100
     14 O1         -2.7960    1.6110    3.9250 os        1 77B     -0.392600
     15 C3         -2.8270    1.9580    2.5520 cx        1 77B      0.010100
     16 C4         -1.4710    1.9420    1.6560 c         1 77B      0.666100
     17 O4         -0.7360    2.9140    1.6470 o         1 77B     -0.596100
     18 O2         -5.1020    4.0780    3.6390 o         1 77B     -0.584100
     19 C23        -3.6970   -0.4960    5.6940 c1        1 77B     -0.054500
     20 C22        -3.0280   -1.7160    5.6700 c1        1 77B     -0.068250
     21 C21        -3.4050   -2.6990    4.7600 c1        1 77B     -0.068250
     22 N1         -1.1760    0.8040    0.8110 n         1 77B     -0.537900
     23 C5          0.1490    0.2780    0.7610 c3        1 77B      0.042700
     24 C6          0.5430    0.0290   -0.6920 c         1 77B      0.650100
     25 O5          0.7210   -1.1090   -1.0880 o         1 77B     -0.608100
     26 C24         0.2050   -1.0220    1.5280 c3        1 77B     -0.057700
     27 C26         1.6580   -1.3980    1.7870 c3        1 77B     -0.089400
     28 C25        -0.4670   -2.1200    0.7180 c3        1 77B     -0.107100
     29 C27         1.7450   -2.2770    3.0420 c3        1 77B     -0.089100
     30 N2          0.7380    1.1520   -1.5950 n         1 77B     -0.464800
     31 C7          1.1040    1.0850   -2.8600 c3        1 77B      0.065700
     32 C8          2.0010   -0.1160   -3.0680 c         1 77B      0.627100
     33 O7          2.5360   -0.3900   -4.3590 os        1 77B     -0.437900
     34 C9          3.5960   -1.3380   -4.3540 c3        1 77B      0.149500
     35 O6          2.3230   -0.8050   -2.1190 o         1 77B     -0.537000
     36 C30         1.8350    2.5040   -3.0630 c3        1 77B     -0.081400
     37 C29         1.4890    3.3410   -1.8410 c3        1 77B     -0.092400
     38 C28         0.5490    2.7010   -1.2390 c3        1 77B      0.084000
     39 H14         7.2450   -0.3720   -6.9680 ha        1 77B      0.077750
     40 H13         6.2450   -1.2420   -8.9340 ha        1 77B      0.077750
     41 H12         4.0470   -2.1310   -8.8530 ha        1 77B      0.077750
     42 H11         2.8500   -2.1500   -6.8060 ha        1 77B      0.075500
     43 H15         6.0490   -0.3900   -4.9200 ha        1 77B      0.077750
     44 H20        -4.7180   -3.1550    3.2320 ha        1 77B      0.077750
     45 H19        -5.8600   -1.0750    3.2720 ha        1 77B      0.077750
     46 H171       -5.1450    1.6290    5.5790 h1        1 77B      0.072200
     47 H172       -6.4440    0.9320    4.9390 h1        1 77B      0.072200
     48 HN3        -5.6150    1.4710    2.8150 hn        1 77B      0.317500
     49 H2         -2.8360    3.9230    3.7860 h1        1 77B      0.133700
     50 H3         -3.5780    1.6570    2.0020 h1        1 77B      0.134700
     51 H23        -3.4310    0.1970    6.3360 ha        1 77B      0.093500
     52 H22        -2.2890   -1.8830    6.2950 ha        1 77B      0.077750
     53 H21        -2.9330   -3.5600    4.7430 ha        1 77B      0.077750
     54 HN1        -1.8340    0.4450    0.2780 hn        1 77B      0.335500
     55 H5          0.7720    0.9220    1.1630 h1        1 77B      0.094700
     56 H24        -0.2620   -0.9160    2.3850 hc        1 77B      0.057700
     57 H261        2.0100   -1.8940    1.0150 hc        1 77B      0.056700
     58 H262        2.1900   -0.5810    1.9210 hc        1 77B      0.056700
     59 H251       -1.1330   -1.7220    0.1160 hc        1 77B      0.047367
     60 H252        0.2090   -2.5980    0.1890 hc        1 77B      0.047367
     61 H253       -0.9140   -2.7530    1.3290 hc        1 77B      0.047367
     62 H271        1.0500   -2.9690    3.0060 hc        1 77B      0.034367
     63 H272        1.6120   -1.7210    3.8420 hc        1 77B      0.034367
     64 H273        2.6310   -2.7040    3.0840 hc        1 77B      0.034367
     65 H7          0.4100    0.9340   -3.5420 h1        1 77B      0.105700
     66 H91         3.2280   -2.2410   -4.2300 h1        1 77B      0.072200
     67 H92         4.2160   -1.1320   -3.6200 h1        1 77B      0.072200
     68 H301        2.8070    2.3770   -3.1200 hc        1 77B      0.068200
     69 H302        1.5020    2.9430   -3.8780 hc        1 77B      0.068200
     70 H291        2.2740    3.4250   -1.2530 hc        1 77B      0.058700
     71 H292        1.1720    4.2320   -2.1170 hc        1 77B      0.058700
     72 H281        0.6210    2.8340   -0.2700 h1        1 77B      0.062700
     73 H282       -0.3280    3.0150   -1.5580 h1        1 77B      0.062700
@<TRIPOS>BOND
     1    1    6 3   
     2    1   39 1   
     3    2    3 3   
     4    2   40 1   
     5    3   41 1   
     6    4    5 3   
     7    4   42 1   
     8    5   34 1   
     9    6   43 1   
    10    7    8 3   
    11    7   44 1   
    12    8   45 1   
    13    9   10 1   
    14    9   19 3   
    15   10   11 1   
    16   10   46 1   
    17   10   47 1   
    18   11   12 1   
    19   11   48 1   
    20   12   13 1   
    21   12   18 2   
    22   13   14 1   
    23   13   15 1   
    24   13   49 1   
    25   14   15 1   
    26   15   16 1   
    27   15   50 1   
    28   16   17 2   
    29   16   22 1   
    30   19   51 1   
    31   20   21 3   
    32   20   52 1   
    33   21   53 1   
    34   22   23 1   
    35   22   54 1   
    36   23   24 1   
    37   23   26 1   
    38   23   55 1   
    39   24   25 2   
    40   24   30 1   
    41   26   27 1   
    42   26   28 1   
    43   26   56 1   
    44   27   29 1   
    45   27   57 1   
    46   27   58 1   
    47   28   59 1   
    48   28   60 1   
    49   28   61 1   
    50   29   62 1   
    51   29   63 1   
    52   29   64 1   
    53   30   31 1   
    54   30   38 1   
    55   31   32 1   
    56   31   36 1   
    57   31   65 1   
    58   32   33 1   
    59   32   35 2   
    60   33   34 1   
    61   34   66 1   
    62   34   67 1   
    63   36   37 1   
    64   36   68 1   
    65   36   69 1   
    66   37   38 1   
    67   37   70 1   
    68   37   71 1   
    69   38   72 1   
    70   38   73 1   
@<TRIPOS>SUBSTRUCTURE
     1 77B         1 TEMP              0 ****  ****    0 ROOT
