@<TRIPOS>MOLECULE
77D
   59    62     1     0     0
SMALL
bcc


@<TRIPOS>ATOM
      1 N01         0.0590   -0.4110    0.6700 n         1 77D     -0.538900
      2 C02         1.3870   -0.0920    0.2430 c3        1 77D      0.098000
      3 C03         2.5010   -0.2740    1.3030 c3        1 77D     -0.072000
      4 C04         3.8370   -0.2540    0.5780 c3        1 77D     -0.104600
      5 C05         2.4580    0.8830    2.2940 c3        1 77D     -0.104600
      6 C06         2.3280   -1.5790    2.0890 c3        1 77D     -0.059100
      7 C07         1.9230   -2.7450    1.2720 cc        1 77D      0.026700
      8 C08         2.6080   -3.9590    0.9890 cc        1 77D     -0.215600
      9 C09         3.9800   -4.3500    1.2640 c         1 77D      0.595700
     10 N10         4.9860   -3.3410    1.7140 n4        1 77D     -0.668800
     11 C11         5.2210   -3.3970    3.2120 c3        1 77D      0.114500
     12 C12         6.1260   -4.6080    3.5900 c3        1 77D      0.163800
     13 N13         6.2370   -4.6730    5.0270 n3        1 77D     -0.827200
     14 C14         6.8160   -3.4810    5.6170 c3        1 77D      0.147800
     15 C15         6.0620   -2.2120    5.2210 c3        1 77D     -0.080400
     16 C16         5.8840   -2.1110    3.7160 c3        1 77D     -0.103400
     17 O17         4.4320   -5.4880    1.0990 o         1 77D     -0.494100
     18 C18         1.7250   -4.8730    0.3140 cd        1 77D     -0.172500
     19 N19         2.0930   -6.2250   -0.0500 n4        1 77D     -0.446800
     20 C20         0.9810   -7.0120   -0.5920 ca        1 77D     -0.145400
     21 C21         0.2380   -7.8750    0.2590 ca        1 77D      0.172900
     22 F22         0.5210   -7.9340    1.5780 f         1 77D     -0.107900
     23 C23        -0.7860   -8.6720   -0.2850 ca        1 77D     -0.107000
     24 C24        -1.0620   -8.6220   -1.6490 ca        1 77D      0.095900
     25 I25        -2.5280   -9.7720   -2.4220 i         1 77D      0.002100
     26 C26        -0.3150   -7.7810   -2.4850 ca        1 77D     -0.086000
     27 C27         0.7010   -6.9840   -1.9720 ca        1 77D     -0.085000
     28 S28         0.2430   -4.2140    0.0500 ss        1 77D      0.582200
     29 C29         0.6160   -2.8000    0.7480 cd        1 77D     -0.256700
     30 C30        -0.3760   -1.6920    0.8960 c         1 77D      0.722100
     31 O31        -1.5510   -1.9540    1.2050 o         1 77D     -0.578500
     32 HN01       -0.5910    0.3320    0.8260 hn        1 77D      0.362500
     33 H02         1.6490   -0.7280   -0.6530 h1        1 77D      0.070700
     34 H02A        1.3960    0.9880   -0.0860 h1        1 77D      0.070700
     35 H04         3.9250    0.6790   -0.0350 hc        1 77D      0.053033
     36 H04A        3.9330   -1.1280   -0.1120 hc        1 77D      0.053033
     37 H04B        4.6800   -0.2570    1.3120 hc        1 77D      0.053033
     38 H05         2.6680    1.8470    1.7680 hc        1 77D      0.053033
     39 H05A        1.4530    0.9540    2.7760 hc        1 77D      0.053033
     40 H05B        3.2270    0.7410    3.0910 hc        1 77D      0.053033
     41 H06         1.5030   -1.4170    2.8490 hc        1 77D      0.079200
     42 H06A        3.2450   -1.7690    2.7010 hc        1 77D      0.079200
     43 HN10        5.8830   -3.5450    1.2460 hn        1 77D      0.472800
     44 H11         4.2060   -3.5180    3.6960 hx        1 77D      0.120700
     45 H12         5.6570   -5.5660    3.2270 h1        1 77D      0.053700
     46 H12A        7.1200   -4.4780    3.0670 h1        1 77D      0.053700
     47 HN13        6.7220   -5.5030    5.3130 hn        1 77D      0.414800
     48 H14         6.7600   -3.6040    6.7370 h1        1 77D      0.069200
     49 H14A        7.9040   -3.3550    5.3380 h1        1 77D      0.069200
     50 H15         5.0600   -2.1900    5.7240 hc        1 77D      0.082200
     51 H15A        6.6440   -1.3220    5.5800 hc        1 77D      0.082200
     52 H16         5.2530   -1.2140    3.4750 hc        1 77D      0.066200
     53 H16A        6.8860   -1.9750    3.2290 hc        1 77D      0.066200
     54 HN19        2.8570   -6.1890   -0.7460 hn        1 77D      0.478800
     55 H23        -1.3520   -9.3360    0.3970 ha        1 77D      0.209000
     56 H26        -0.5230   -7.7490   -3.5720 ha        1 77D      0.196000
     57 H27         1.2850   -6.3480   -2.6590 ha        1 77D      0.165000
     58 H102        4.6840   -2.3920    1.4520 hn        1 77D      0.472800
     59 H192        2.4620   -6.7010    0.7970 hn        1 77D      0.478800
@<TRIPOS>BOND
     1    1    2 1   
     2    1   30 1   
     3    1   32 1   
     4    2    3 1   
     5    2   33 1   
     6    2   34 1   
     7    3    4 1   
     8    3    5 1   
     9    3    6 1   
    10    4   35 1   
    11    4   36 1   
    12    4   37 1   
    13    5   38 1   
    14    5   39 1   
    15    5   40 1   
    16    6    7 1   
    17    6   41 1   
    18    6   42 1   
    19    7    8 1   
    20    7   29 2   
    21    8    9 1   
    22    8   18 2   
    23    9   10 1   
    24    9   17 2   
    25   10   11 1   
    26   10   43 1   
    27   10   58 1   
    28   11   12 1   
    29   11   16 1   
    30   11   44 1   
    31   12   13 1   
    32   12   45 1   
    33   12   46 1   
    34   13   14 1   
    35   13   47 1   
    36   14   15 1   
    37   14   48 1   
    38   14   49 1   
    39   15   16 1   
    40   15   50 1   
    41   15   51 1   
    42   16   52 1   
    43   16   53 1   
    44   18   19 1   
    45   18   28 1   
    46   19   20 1   
    47   19   54 1   
    48   19   59 1   
    49   20   21 ar  
    50   20   27 ar  
    51   21   22 1   
    52   21   23 ar  
    53   23   24 ar  
    54   23   55 1   
    55   24   25 1   
    56   24   26 ar  
    57   26   27 ar  
    58   26   56 1   
    59   27   57 1   
    60   28   29 1   
    61   29   30 1   
    62   30   31 2   
@<TRIPOS>SUBSTRUCTURE
     1 77D         1 TEMP              0 ****  ****    0 ROOT
