@<TRIPOS>MOLECULE
77D
   58    61     1     0     0
SMALL
bcc


@<TRIPOS>ATOM
      1 N01         0.2060   -0.2050    0.5610 n         1 77D     -0.559900
      2 C02         1.5700    0.0060    0.1960 c3        1 77D      0.107000
      3 C03         2.6180   -0.2640    1.3050 c3        1 77D     -0.075000
      4 C04         3.9780   -0.3380    0.6290 c3        1 77D     -0.101100
      5 C05         2.6240    0.8940    2.2950 c3        1 77D     -0.101100
      6 C06         2.3050   -1.5490    2.0800 c3        1 77D     -0.043100
      7 C07         1.8320   -2.6830    1.2490 cc        1 77D      0.010700
      8 C08         2.4380   -3.9770    1.0440 cc        1 77D     -0.344600
      9 C09         3.7180   -4.4650    1.4530 c         1 77D      0.604700
     10 N10         4.8160   -3.4710    1.7810 n4        1 77D     -0.674800
     11 C11         5.1400   -3.4390    3.2530 c3        1 77D      0.116500
     12 C12         6.0330   -4.6480    3.6550 c3        1 77D      0.160800
     13 N13         6.2750   -4.6230    5.0780 n3        1 77D     -0.825200
     14 C14         6.9180   -3.4090    5.5390 c3        1 77D      0.152800
     15 C15         6.1460   -2.1550    5.1300 c3        1 77D     -0.078400
     16 C16         5.8530   -2.1400    3.6420 c3        1 77D     -0.103400
     17 O17         4.1110   -5.6340    1.5160 o         1 77D     -0.515100
     18 C18         1.5400   -4.8510    0.3290 cd        1 77D      0.247500
     19 N19         1.8060   -6.1370   -0.0130 nh        1 77D     -0.570000
     20 C20         0.8730   -7.0080   -0.6160 ca        1 77D      0.075600
     21 C21         0.9030   -8.3980   -0.2870 ca        1 77D      0.112900
     22 F22         1.8070   -8.8700    0.6040 f         1 77D     -0.124900
     23 C23        -0.0000   -9.2880   -0.8900 ca        1 77D     -0.100000
     24 C24        -0.9330   -8.8230   -1.8120 ca        1 77D      0.042900
     25 I25        -2.2370  -10.1070   -2.6610 i         1 77D     -0.076900
     26 C26        -0.9610   -7.4690   -2.1480 ca        1 77D     -0.076000
     27 C27        -0.0700   -6.5720   -1.5660 ca        1 77D     -0.140000
     28 S28         0.1170   -4.0410   -0.0750 ss        1 77D      0.201200
     29 C29         0.5790   -2.6220    0.6690 cd        1 77D     -0.219700
     30 C30        -0.3350   -1.4610    0.7480 c         1 77D      0.733100
     31 O31        -1.5520   -1.5960    0.9740 o         1 77D     -0.606500
     32 HN01       -0.3900    0.5820    0.6820 hn        1 77D      0.341500
     33 H02         1.6850    1.0790   -0.1340 h1        1 77D      0.060700
     34 H02A        1.8220   -0.6560   -0.6830 h1        1 77D      0.060700
     35 H04         4.0280   -1.2050   -0.0740 hc        1 77D      0.045367
     36 H04A        4.7910   -0.4220    1.3910 hc        1 77D      0.045367
     37 H04B        4.1610    0.5940    0.0380 hc        1 77D      0.045367
     38 H05         1.6090    1.0400    2.7370 hc        1 77D      0.045367
     39 H05A        3.3480    0.6940    3.1210 hc        1 77D      0.045367
     40 H05B        2.9260    1.8390    1.7810 hc        1 77D      0.045367
     41 H06         3.1750   -1.8120    2.7310 hc        1 77D      0.063200
     42 H06A        1.4680   -1.3150    2.8050 hc        1 77D      0.063200
     43 HN10        5.6610   -3.7560    1.2710 hn        1 77D      0.456300
     44 H11         4.1550   -3.5090    3.8050 hx        1 77D      0.122700
     45 H12         6.9830   -4.6000    3.0440 h1        1 77D      0.056700
     46 H12A        5.5000   -5.6110    3.4080 h1        1 77D      0.056700
     47 HN13        6.7790   -5.4400    5.3670 hn        1 77D      0.402800
     48 H14         6.9620   -3.4610    6.6640 h1        1 77D      0.054700
     49 H14A        7.9770   -3.3170    5.1550 h1        1 77D      0.054700
     50 H15         6.7580   -1.2530    5.3950 hc        1 77D      0.073200
     51 H15A        5.1840   -2.0970    5.7050 hc        1 77D      0.073200
     52 H16         5.2150   -1.2480    3.4010 hc        1 77D      0.059700
     53 H16A        6.8150   -2.0430    3.0720 hc        1 77D      0.059700
     54 HN19        2.6140   -6.5840    0.3840 hn        1 77D      0.483800
     55 H23         0.0500  -10.3550   -0.6110 ha        1 77D      0.181000
     56 H26        -1.6900   -7.0910   -2.8860 ha        1 77D      0.168000
     57 H27        -0.1010   -5.5180   -1.8950 ha        1 77D      0.150000
     58 H102        4.5440   -2.5320    1.4690 hn        1 77D      0.456300
@<TRIPOS>BOND
     1    1    2 1   
     2    1   30 1   
     3    1   32 1   
     4    2    3 1   
     5    2   33 1   
     6    2   34 1   
     7    3    4 1   
     8    3    5 1   
     9    3    6 1   
    10    4   35 1   
    11    4   36 1   
    12    4   37 1   
    13    5   38 1   
    14    5   39 1   
    15    5   40 1   
    16    6    7 1   
    17    6   41 1   
    18    6   42 1   
    19    7    8 1   
    20    7   29 2   
    21    8    9 1   
    22    8   18 2   
    23    9   10 1   
    24    9   17 2   
    25   10   11 1   
    26   10   43 1   
    27   10   58 1   
    28   11   12 1   
    29   11   16 1   
    30   11   44 1   
    31   12   13 1   
    32   12   45 1   
    33   12   46 1   
    34   13   14 1   
    35   13   47 1   
    36   14   15 1   
    37   14   48 1   
    38   14   49 1   
    39   15   16 1   
    40   15   50 1   
    41   15   51 1   
    42   16   52 1   
    43   16   53 1   
    44   18   19 1   
    45   18   28 1   
    46   19   20 1   
    47   19   54 1   
    48   20   21 ar  
    49   20   27 ar  
    50   21   22 1   
    51   21   23 ar  
    52   23   24 ar  
    53   23   55 1   
    54   24   25 1   
    55   24   26 ar  
    56   26   27 ar  
    57   26   56 1   
    58   27   57 1   
    59   28   29 1   
    60   29   30 1   
    61   30   31 2   
@<TRIPOS>SUBSTRUCTURE
     1 77D         1 TEMP              0 ****  ****    0 ROOT
