@<TRIPOS>MOLECULE
77D
   57    60     1     0     0
SMALL
bcc


@<TRIPOS>ATOM
      1 N01         3.3110   -4.2140    0.9570 n         1 77D     -0.563900
      2 C02         3.7460   -3.1350    1.7860 c3        1 77D      0.107000
      3 C03         4.6840   -2.0970    1.1280 c3        1 77D     -0.072000
      4 C04         4.8110   -0.9300    2.0980 c3        1 77D     -0.093600
      5 C05         6.0620   -2.7110    0.9200 c3        1 77D     -0.093600
      6 C06         4.1570   -1.6220   -0.2300 c3        1 77D     -0.028100
      7 C07         2.6830   -1.5660   -0.3640 cc        1 77D     -0.002300
      8 C08         1.9170   -0.4090   -0.6940 cc        1 77D     -0.251600
      9 C09         2.4190    0.9730   -0.8540 c         1 77D      0.700700
     10 N10         3.2190    1.4820    0.1470 n         1 77D     -0.556900
     11 C11         3.8460    2.7790    0.0620 c3        1 77D      0.057700
     12 C12         3.5120    3.6550    1.3080 c3        1 77D      0.144800
     13 N13         4.1220    4.9660    1.2930 n3        1 77D     -0.796200
     14 C14         5.5520    4.9220    1.0560 c3        1 77D      0.148800
     15 C15         5.9810    4.0770   -0.1440 c3        1 77D     -0.113400
     16 C16         5.3770    2.6920   -0.0740 c3        1 77D     -0.096400
     17 O17         2.0740    1.6830   -1.8260 o         1 77D     -0.626100
     18 C18         0.5590   -0.7240   -0.9210 cd        1 77D      0.181500
     19 N19        -0.3760    0.1740   -1.3900 nh        1 77D     -0.596000
     20 C20        -1.7180    0.2140   -1.0090 ca        1 77D      0.151600
     21 C21        -2.5260    1.3240   -1.4250 ca        1 77D      0.068900
     22 F22        -1.9750    2.3490   -2.1220 f         1 77D     -0.132900
     23 C23        -3.8920    1.3690   -1.1170 ca        1 77D     -0.094000
     24 C24        -4.4850    0.3370   -0.3940 ca        1 77D      0.003900
     25 I25        -6.4540    0.4110    0.0390 i         1 77D     -0.126900
     26 C26        -3.7100   -0.7410    0.0280 ca        1 77D     -0.066000
     27 C27        -2.3530   -0.8050   -0.2700 ca        1 77D     -0.181000
     28 S28         0.2910   -2.3790   -0.7020 ss        1 77D      0.142200
     29 C29         1.8800   -2.7010   -0.3240 cd        1 77D     -0.235700
     30 C30         2.3720   -4.0610   -0.0460 c         1 77D      0.744100
     31 O31         1.9740   -5.0660   -0.6710 o         1 77D     -0.640500
     32 HN01        3.7520   -5.0990    1.0500 hn        1 77D      0.324500
     33 H02         2.8360   -2.5830    2.1660 h1        1 77D      0.053200
     34 H02A        4.2840   -3.5730    2.6750 h1        1 77D      0.053200
     35 H04         5.2980   -1.2700    3.0450 hc        1 77D      0.040367
     36 H04A        5.4390   -0.1200    1.6520 hc        1 77D      0.040367
     37 H04B        3.8060   -0.5170    2.3540 hc        1 77D      0.040367
     38 H05         5.9970   -3.6150    0.2680 hc        1 77D      0.040367
     39 H05A        6.7430   -1.9710    0.4340 hc        1 77D      0.040367
     40 H05B        6.5050   -3.0110    1.9000 hc        1 77D      0.040367
     41 H06         4.6200   -0.6290   -0.4720 hc        1 77D      0.064700
     42 H06A        4.5240   -2.3400   -1.0210 hc        1 77D      0.064700
     43 HN10        3.5150    0.8810    0.8800 hn        1 77D      0.314500
     44 H11         3.4380    3.2980   -0.8580 h1        1 77D      0.091700
     45 H12         2.3980    3.7840    1.3830 h1        1 77D      0.056700
     46 H12A        3.8680    3.1230    2.2350 h1        1 77D      0.056700
     47 HN13        3.6780    5.5400    0.5980 hn        1 77D      0.355800
     48 H14         5.9200    5.9770    0.9200 h1        1 77D      0.053700
     49 H14A        6.0340    4.5040    1.9840 h1        1 77D      0.053700
     50 H15         5.6660    4.5790   -1.0970 hc        1 77D      0.049200
     51 H15A        7.0990    4.0010   -0.1580 hc        1 77D      0.049200
     52 H16         5.8050    2.1390    0.8040 hc        1 77D      0.044200
     53 H16A        5.6440    2.1180   -1.0000 hc        1 77D      0.044200
     54 HN19        0.0010    1.0260   -1.7780 hn        1 77D      0.482800
     55 H23        -4.4780    2.2370   -1.4600 ha        1 77D      0.164000
     56 H26        -4.1640   -1.5630    0.6060 ha        1 77D      0.151000
     57 H27        -1.7800   -1.6730    0.0990 ha        1 77D      0.146000
@<TRIPOS>BOND
     1    1    2 1   
     2    1   30 1   
     3    1   32 1   
     4    2    3 1   
     5    2   33 1   
     6    2   34 1   
     7    3    4 1   
     8    3    5 1   
     9    3    6 1   
    10    4   35 1   
    11    4   36 1   
    12    4   37 1   
    13    5   38 1   
    14    5   39 1   
    15    5   40 1   
    16    6    7 1   
    17    6   41 1   
    18    6   42 1   
    19    7    8 1   
    20    7   29 2   
    21    8    9 1   
    22    8   18 2   
    23    9   10 1   
    24    9   17 2   
    25   10   11 1   
    26   10   43 1   
    27   11   12 1   
    28   11   16 1   
    29   11   44 1   
    30   12   13 1   
    31   12   45 1   
    32   12   46 1   
    33   13   14 1   
    34   13   47 1   
    35   14   15 1   
    36   14   48 1   
    37   14   49 1   
    38   15   16 1   
    39   15   50 1   
    40   15   51 1   
    41   16   52 1   
    42   16   53 1   
    43   18   19 1   
    44   18   28 1   
    45   19   20 1   
    46   19   54 1   
    47   20   21 ar  
    48   20   27 ar  
    49   21   22 1   
    50   21   23 ar  
    51   23   24 ar  
    52   23   55 1   
    53   24   25 1   
    54   24   26 ar  
    55   26   27 ar  
    56   26   56 1   
    57   27   57 1   
    58   28   29 1   
    59   29   30 1   
    60   30   31 2   
@<TRIPOS>SUBSTRUCTURE
     1 77D         1 TEMP              0 ****  ****    0 ROOT
