@<TRIPOS>MOLECULE
77D
   57    55     1     0     0
SMALL
bcc


@<TRIPOS>ATOM
      1 N01         2.2300   -0.4890   -2.8090 n3        1 77D     -0.310000
      2 C02         3.3340   -0.5580   -2.8470 c3        1 77D     -0.063000
      3 C03         3.9170   -0.4940   -1.4320 c3        1 77D     -0.082000
      4 C04         5.1670   -1.3610   -1.3670 c3        1 77D     -0.209000
      5 C05         4.2910    0.9400   -1.1140 c3        1 77D     -0.209000
      6 C06         2.7140   -1.0840   -0.2040 c3        1 77D     -0.120000
      7 C07         1.0660   -0.7400   -0.7230 c2        1 77D      0.032000
      8 C08        -0.2100    0.1410   -0.3100 c1        1 77D     -0.232000
      9 C09        -0.3170    1.0400    0.9210 c1        1 77D      0.364000
     10 N10        -0.8850    0.5110    2.1640 n3        1 77D     -0.371000
     11 C11        -1.1080    1.3940    3.2910 c3        1 77D     -0.025000
     12 C12        -2.1330    0.7560    4.2260 c3        1 77D     -0.091000
     13 N13        -1.6040   -0.4370    4.9160 n3        1 77D     -0.280000
     14 C14        -0.3320   -0.1870    5.5820 c3        1 77D     -0.088000
     15 C15         0.7060    0.4550    4.6470 c3        1 77D     -0.196000
     16 C16         0.1840    1.6500    3.9640 c3        1 77D     -0.178000
     17 O17        -0.0300    2.2320    0.8360 o         1 77D     -0.356000
     18 C18        -1.2680   -0.0900   -1.2960 c1        1 77D     -0.191000
     19 N19        -2.4790    0.6470   -1.4040 n2        1 77D     -0.213000
     20 C20        -3.4700    0.2900   -2.4390 c2        1 77D      0.034000
     21 C21        -4.3170    1.2700   -2.9520 c2        1 77D      0.042000
     22 F22        -4.0710    2.5800   -2.6930 f         1 77D     -0.100000
     23 C23        -5.3750    0.9090   -3.7960 c1        1 77D     -0.099000
     24 C24        -5.5770   -0.4160   -4.1180 c1        1 77D     -0.268000
     25 I25        -7.1990   -0.9680   -5.3380 i         1 77D      0.167000
     26 C26        -4.7220   -1.4010   -3.6000 c1        1 77D     -0.075000
     27 C27        -3.6750   -1.0420   -2.7640 c1        1 77D     -0.155000
     28 S28        -0.7340   -1.0820   -2.3300 ss        1 77D      0.642000
     29 C29         0.7510   -1.4570   -1.9130 c1        1 77D     -0.527000
     30 C30         1.7200   -1.6150   -2.5560 c1        1 77D      0.358000
     31 O31         2.4040   -2.6070   -2.4190 o         1 77D     -0.259000
     32 HN01        1.7420    0.2740   -3.0200 hn        1 77D      0.180000
     33 H02         3.5870   -1.3880   -3.2590 h1        1 77D      0.103500
     34 H02A        3.6870    0.1870   -3.3770 h1        1 77D      0.103500
     35 H04         5.8420   -1.0090   -1.9860 hc        1 77D      0.081167
     36 H04A        4.9370   -2.2940   -1.6230 hc        1 77D      0.081167
     37 H04B        5.5280   -1.3510   -0.4460 hc        1 77D      0.081167
     38 H05         3.4960    1.5030   -1.1610 hc        1 77D      0.081167
     39 H05A        4.9450    1.2540   -1.7560 hc        1 77D      0.081167
     40 H05B        4.6710    0.9870   -0.2110 hc        1 77D      0.081167
     41 H06         2.8110   -2.0610   -0.1300 hc        1 77D      0.108500
     42 H06A        2.8730   -0.6010    0.6310 hc        1 77D      0.108500
     43 HN10       -1.1480   -0.3520    2.2090 hn        1 77D      0.222000
     44 H11        -1.4590    2.2240    2.9670 h1        1 77D      0.135000
     45 H12        -2.4060    1.4250    4.9050 h1        1 77D      0.101500
     46 H12A       -2.9210    0.4960    3.7000 h1        1 77D      0.101500
     47 HN13       -1.5060   -1.1200    4.3160 hn        1 77D      0.147000
     48 H14         0.0230   -1.0330    5.9140 h1        1 77D      0.093500
     49 H14A       -0.4870    0.4120    6.3440 h1        1 77D      0.093500
     50 H15         0.9750   -0.2040    3.9720 hc        1 77D      0.083500
     51 H15A        1.5110    0.7160    5.1890 hc        1 77D      0.083500
     52 H16         0.8360    1.9410    3.2950 hc        1 77D      0.092000
     53 H16A        0.0650    2.3540    4.6120 hc        1 77D      0.092000
     54 HN19       -2.6580    1.3230   -0.8120 hn        1 77D      0.245000
     55 H23        -5.9830    1.6130   -4.1650 ha        1 77D      0.166000
     56 H26        -4.8660   -2.3460   -3.8290 ha        1 77D      0.156000
     57 H27        -3.0740   -1.7350   -2.4000 ha        1 77D      0.154000
@<TRIPOS>BOND
     1    1    2 1   
     2    1   30 1   
     3    1   32 1   
     4    2    3 1   
     5    2   33 1   
     6    2   34 1   
     7    3    4 1   
     8    3    5 1   
     9    3    6 1   
    10    4   35 1   
    11    4   36 1   
    12    4   37 1   
    13    5   38 1   
    14    5   39 1   
    15    5   40 1   
    16    6    7 1   
    17    6   41 1   
    18    6   42 1   
    19    7    8 1   
    20    7   29 1   
    21    8   18 1   
    22    9   10 1   
    23    9   17 1   
    24   10   11 1   
    25   10   43 1   
    26   11   12 1   
    27   11   16 1   
    28   11   44 1   
    29   12   13 1   
    30   12   45 1   
    31   12   46 1   
    32   13   14 1   
    33   13   47 1   
    34   14   15 1   
    35   14   48 1   
    36   14   49 1   
    37   15   16 1   
    38   15   50 1   
    39   15   51 1   
    40   16   52 1   
    41   16   53 1   
    42   18   28 1   
    43   19   20 1   
    44   19   54 1   
    45   20   21 1   
    46   20   27 1   
    47   21   22 1   
    48   21   23 1   
    49   23   55 1   
    50   24   25 1   
    51   24   26 1   
    52   26   56 1   
    53   27   57 1   
    54   28   29 1   
    55   30   31 1   
@<TRIPOS>SUBSTRUCTURE
     1 77D         1 TEMP              0 ****  ****    0 ROOT
