@<TRIPOS>MOLECULE
77F
   78    81     1     0     0
SMALL
bcc


@<TRIPOS>ATOM
      1 C21        -2.7450    0.5320   -0.2590 c         1 77F      0.675700
      2 O22        -2.1890    1.0980    0.7070 o         1 77F     -0.623100
      3 C22        -3.8650    1.1780   -1.0050 ca        1 77F     -0.098600
      4 C27        -4.8230    1.8790   -0.2660 ca        1 77F     -0.165000
      5 C26        -5.8780    2.5050   -0.9420 ca        1 77F      0.120100
      6 C25        -5.9790    2.4420   -2.3420 ca        1 77F     -0.137000
      7 C24        -5.0070    1.7490   -3.0570 ca        1 77F     -0.104000
      8 C23        -3.9510    1.1150   -2.3980 ca        1 77F     -0.142000
      9 O27        -6.8640    3.2060   -0.2870 oh        1 77F     -0.495100
     10 C11         6.2820   -2.8920   -0.3660 c3        1 77F     -0.074900
     11 N11         2.4070   -0.6400    0.3880 n3        1 77F     -0.799500
     12 C12         3.2200   -0.5610   -0.7990 c3        1 77F      0.222800
     13 C13         4.1580   -1.7550   -1.0470 c3        1 77F     -0.078700
     14 C14         4.6670   -1.6850   -2.4810 c3        1 77F     -0.074900
     15 C15         5.3250   -1.7560   -0.0720 c3        1 77F     -0.074900
     16 C17         0.1040   -0.9400   -0.5700 c3        1 77F      0.084100
     17 C18         6.7790   -2.8410   -1.7960 c3        1 77F     -0.077400
     18 O18         0.2850   -1.2800   -1.9300 oh        1 77F     -0.592800
     19 C19        -1.2700   -1.4290   -0.0290 c3        1 77F      0.078700
     20 C20         5.6240   -2.8210   -2.7760 c3        1 77F     -0.074900
     21 N20        -2.3760   -0.7380   -0.6510 n         1 77F     -0.548900
     22 C32        -1.3900   -2.9560   -0.1790 c3        1 77F     -0.049100
     23 C33        -3.6440   -4.0500   -0.2170 ca        1 77F     -0.123500
     24 C34        -4.7550   -4.5780    0.4400 ca        1 77F     -0.125500
     25 C35        -4.8160   -4.5640    1.8330 ca        1 77F     -0.127000
     26 C36        -3.7630   -4.0210    2.5690 ca        1 77F     -0.125500
     27 C37        -2.6510   -3.4940    1.9150 ca        1 77F     -0.123500
     28 C38        -2.5850   -3.5030    0.5160 ca        1 77F     -0.083300
     29 S8          2.7380    0.2550    1.7210 sy        1 77F      1.510200
     30 O9          4.1360    0.3210    1.9220 o         1 77F     -0.656300
     31 O10         1.9800   -0.2460    2.8050 o         1 77F     -0.656300
     32 C5          2.1910    1.7860    1.3120 ca        1 77F     -0.436500
     33 C4          0.8210    2.0950    1.3120 ca        1 77F      0.018000
     34 C6          3.1010    2.8040    0.9990 ca        1 77F      0.018000
     35 C3          0.3650    3.3680    1.0080 ca        1 77F     -0.208000
     36 C7          2.6770    4.0920    0.6950 ca        1 77F     -0.208000
     37 C2          1.3020    4.3740    0.6980 ca        1 77F      0.186100
     38 O1          0.7610    5.6050    0.4100 os        1 77F     -0.318900
     39 C1          1.6810    6.6510    0.1130 c3        1 77F      0.110700
     40 H27        -4.7320    1.9420    0.8290 ha        1 77F      0.157000
     41 H25        -6.8160    2.9420   -2.8490 ha        1 77F      0.154000
     42 H24        -5.0710    1.7020   -4.1540 ha        1 77F      0.140000
     43 H23        -3.1850    0.5880   -2.9860 ha        1 77F      0.139000
     44 HO27       -6.6610    3.1960    0.6600 ho        1 77F      0.424000
     45 H11A        5.7680   -3.8730   -0.1850 hc        1 77F      0.038200
     46 H12         2.5390   -0.4570   -1.6960 h1        1 77F      0.055700
     47 H12A        3.8490    0.3740   -0.7270 h1        1 77F      0.055700
     48 H13         3.5840   -2.7150   -0.9220 hc        1 77F      0.046700
     49 H14         3.8000   -1.7320   -3.1920 hc        1 77F      0.047200
     50 H14A        5.1860   -0.7040   -2.6440 hc        1 77F      0.047200
     51 H15         4.9440   -1.8450    0.9790 hc        1 77F      0.047200
     52 H15A        5.8690   -0.7770   -0.1380 hc        1 77F      0.047200
     53 H17         0.1050    0.1910   -0.5730 h1        1 77F      0.099700
     54 H18         7.4060   -1.9210   -1.9400 hc        1 77F      0.038700
     55 H18A        7.4310   -3.7290   -2.0020 hc        1 77F      0.038700
     56 HO18        0.4070   -2.2360   -1.9800 ho        1 77F      0.396000
     57 H19        -1.2970   -1.1710    1.0750 h1        1 77F      0.091700
     58 H20         5.0730   -3.7970   -2.7230 hc        1 77F      0.038200
     59 H20A        6.0180   -2.7140   -3.8210 hc        1 77F      0.038200
     60 HN20       -2.7470   -1.1230   -1.4860 hn        1 77F      0.317500
     61 H32        -1.4140   -3.2320   -1.2670 hc        1 77F      0.055200
     62 H32A       -0.4650   -3.4140    0.2650 hc        1 77F      0.055200
     63 H33        -3.6010   -4.0650   -1.3160 ha        1 77F      0.132000
     64 H34        -5.5830   -5.0050   -0.1430 ha        1 77F      0.133500
     65 H35        -5.6930   -4.9800    2.3500 ha        1 77F      0.133000
     66 H36        -3.8080   -4.0080    3.6680 ha        1 77F      0.133500
     67 H37        -1.8220   -3.0650    2.4980 ha        1 77F      0.132000
     68 H4          0.0780    1.3130    1.5630 ha        1 77F      0.162000
     69 H6          4.1840    2.5770    1.0080 ha        1 77F      0.162000
     70 H3         -0.7120    3.5950    1.0040 ha        1 77F      0.156000
     71 H7          3.4150    4.8700    0.4590 ha        1 77F      0.156000
     72 H1          1.0160    7.5340   -0.0710 h1        1 77F      0.049367
     73 H1A         2.3560    6.8400    0.9820 h1        1 77F      0.049367
     74 H1B         2.2730    6.4050   -0.8010 h1        1 77F      0.049367
     75 C16         1.2480   -1.4840    0.3160 c3        1 77F      0.190800
     76 H11         7.1540   -2.8340    0.3370 hc        1 77F      0.038200
     77 H16         1.5530   -2.4940   -0.0850 h1        1 77F      0.066700
     78 H16A        0.8530   -1.6350    1.3650 h1        1 77F      0.066700
@<TRIPOS>BOND
     1    1    2 2   
     2    1    3 1   
     3    1   21 1   
     4    3    4 ar  
     5    3    8 ar  
     6    4    5 ar  
     7    4   40 1   
     8    5    6 ar  
     9    5    9 1   
    10    6    7 ar  
    11    6   41 1   
    12    7    8 ar  
    13    7   42 1   
    14    8   43 1   
    15    9   44 1   
    16   10   15 1   
    17   10   17 1   
    18   10   45 1   
    19   10   76 1   
    20   11   12 1   
    21   11   29 1   
    22   11   75 1   
    23   12   13 1   
    24   12   46 1   
    25   12   47 1   
    26   13   14 1   
    27   13   15 1   
    28   13   48 1   
    29   14   20 1   
    30   14   49 1   
    31   14   50 1   
    32   15   51 1   
    33   15   52 1   
    34   16   18 1   
    35   16   19 1   
    36   16   53 1   
    37   16   75 1   
    38   17   20 1   
    39   17   54 1   
    40   17   55 1   
    41   18   56 1   
    42   19   21 1   
    43   19   22 1   
    44   19   57 1   
    45   20   58 1   
    46   20   59 1   
    47   21   60 1   
    48   22   28 1   
    49   22   61 1   
    50   22   62 1   
    51   23   24 ar  
    52   23   28 ar  
    53   23   63 1   
    54   24   25 ar  
    55   24   64 1   
    56   25   26 ar  
    57   25   65 1   
    58   26   27 ar  
    59   26   66 1   
    60   27   28 ar  
    61   27   67 1   
    62   29   30 2   
    63   29   31 2   
    64   29   32 1   
    65   32   33 ar  
    66   32   34 ar  
    67   33   35 ar  
    68   33   68 1   
    69   34   36 ar  
    70   34   69 1   
    71   35   37 ar  
    72   35   70 1   
    73   36   37 ar  
    74   36   71 1   
    75   37   38 1   
    76   38   39 1   
    77   39   72 1   
    78   39   73 1   
    79   39   74 1   
    80   75   77 1   
    81   75   78 1   
@<TRIPOS>SUBSTRUCTURE
     1 77F         1 TEMP              0 ****  ****    0 ROOT
