@<TRIPOS>MOLECULE
77F
   80    77     1     0     0
SMALL
bcc


@<TRIPOS>ATOM
      1 C21        -0.8540    0.2980   -0.7880 c2        1 77F      0.466000
      2 O22        -1.3010    0.5400   -1.9520 o         1 77F     -0.548000
      3 C22        -0.4140    1.3510    0.0720 c1        1 77F     -0.273000
      4 C27         2.5030   -1.2720    4.0370 c1        1 77F     -0.226000
      5 C26         1.5190   -0.6420    4.2800 c1        1 77F     -0.086000
      6 C25         0.7320    3.1040    2.9100 c2        1 77F     -0.120000
      7 C24         0.3850    3.2780    1.6290 c2        1 77F     -0.133000
      8 C23        -0.0460    2.2350    0.7950 c1        1 77F      0.033000
      9 O27         0.4250    0.0900    4.4570 oh        1 77F     -0.174000
     10 C11         1.6660    1.1750   -7.1170 c3        1 77F     -0.148000
     11 N11        -1.9170    1.1330   -4.6430 n7        1 77F      0.020000
     12 C12        -2.0820    0.8550   -6.0630 c3        1 77F     -0.104000
     13 C13        -0.7850    0.6180   -6.8660 c3        1 77F     -0.107000
     14 C14        -1.0280    1.1770   -8.2660 c3        1 77F     -0.180500
     15 C15         0.4510    1.2220   -6.2160 c3        1 77F     -0.180500
     16 C17        -2.7930   -1.9960   -3.1030 c3        1 77F     -0.104000
     17 C18         1.3660    1.8580   -8.4570 c3        1 77F     -0.115000
     18 O18        -2.8770   -1.6960   -4.4940 oh        1 77F     -0.403000
     19 C19        -1.6520   -2.7570   -2.6340 c1        1 77F     -0.081000
     20 C20         0.2050    1.1280   -9.1410 c3        1 77F     -0.148000
     21 N20        -0.7910   -0.9790   -0.3300 nt        1 77F     -0.388000
     22 C32        -0.8210   -3.5780   -3.4980 c3        1 77F     -0.079000
     23 C33         2.4750   -6.6360   -3.0250 c2        1 77F     -0.175000
     24 C34         3.4580   -6.1310   -2.2760 c2        1 77F     -0.159000
     25 C35         3.8250   -4.7360   -2.1800 c2        1 77F     -0.058000
     26 C36         3.0580   -3.6550   -2.4130 c2        1 77F     -0.110000
     27 C37         1.7100   -3.6510   -2.7910 c1        1 77F     -0.054000
     28 C38         0.5550   -3.6050   -3.1100 c1        1 77F     -0.202000
     29 S8         -2.0900    3.9790   -4.8260 s6        1 77F      2.927000
     30 O9         -1.3760    3.8990   -6.0400 o         1 77F     -0.945000
     31 O10        -1.5540    4.8020   -3.8490 o         1 77F     -0.945000
     32 C5         -3.6390    4.0020   -4.9900 c2        1 77F     -1.215000
     33 C4         -4.5670    4.6040   -4.1720 c2        1 77F      0.227000
     34 C6          0.8430    4.4760   -8.1170 c2        1 77F     -0.213000
     35 C3         -5.9460    4.6350   -4.4430 c2        1 77F     -0.334000
     36 C7          1.1130    3.2460   -8.2990 c1        1 77F      0.258000
     37 C2         -6.8330    5.2890   -3.6170 c2        1 77F      0.174000
     38 O1         -8.1330    5.2680   -3.9600 os        1 77F     -0.163000
     39 C1         -9.0330    5.9760   -3.0840 c3        1 77F     -0.093000
     40 H27         3.3810   -1.8290    3.8350 ha        1 77F      0.246000
     41 H25         0.7060    2.1250    3.4150 ha        1 77F      0.142000
     42 H24         1.0670    3.9470    3.5310 ha        1 77F      0.142000
     43 H23         0.4220    4.2750    1.1500 ha        1 77F      0.150000
     44 HO27        0.1460   -0.0630    5.3810 ho        1 77F      0.242000
     45 H12         1.3540    5.3650   -8.5490 ha        1 77F      0.300000
     46 H12A       -2.7210   -0.0790   -6.1300 h1        1 77F      0.144000
     47 H13        -2.6560    1.7140   -6.5200 h1        1 77F      0.144000
     48 H14        -0.6240   -0.4950   -6.9450 hc        1 77F      0.127000
     49 H14A       -1.8490    0.5910   -8.7600 hc        1 77F      0.107500
     50 H15        -1.3740    2.2450   -8.1830 hc        1 77F      0.107500
     51 H15A        0.2480    2.2920   -5.9380 hc        1 77F      0.107500
     52 H17        -1.8060    0.3050   -4.0510 hn        1 77F      0.311000
     53 H18         1.9550    0.1110   -7.3300 hc        1 77F      0.129500
     54 H18A        2.2940    1.7780   -9.1240 hc        1 77F      0.219000
     55 HO18       -3.1090   -2.5050   -4.9640 ho        1 77F      0.218000
     56 H19        -3.7300   -2.5170   -2.7430 h1        1 77F      0.161000
     57 H20         0.5200    0.0650   -9.3190 hc        1 77F      0.129500
     58 H20A       -0.0160    1.5900  -10.1390 hc        1 77F      0.129500
     59 HN20       -0.4330   -1.1710    0.5740 hn        1 77F      0.262000
     60 H32        -1.2550   -4.6280   -3.3850 hc        1 77F      0.126500
     61 H32A       -0.8950   -3.3120   -4.5950 hc        1 77F      0.126500
     62 H33         1.8260   -6.0150   -3.6560 ha        1 77F      0.118500
     63 H34         2.2680   -7.7150   -3.0590 ha        1 77F      0.118500
     64 H35         4.0920   -6.8070   -1.6710 ha        1 77F      0.140000
     65 H36         4.8720   -4.5650   -1.8610 ha        1 77F      0.138000
     66 H37         3.4950   -2.6450   -2.2850 ha        1 77F      0.137000
     67 H4         -4.2070    5.1070   -3.2470 ha        1 77F      0.142000
     68 H6         -4.0730    3.5360   -5.9010 h4        1 77F      0.207000
     69 H3         -6.3300    4.1310   -5.3470 ha        1 77F      0.177000
     70 H7         -6.5390    5.8290   -2.6970 h4        1 77F      0.157000
     71 H1         -9.0020    5.5260   -2.0640 h1        1 77F      0.119333
     72 H1A       -10.0300    5.8140   -3.5690 h1        1 77F      0.119333
     73 H1B        -8.7660    7.0600   -3.0620 h1        1 77F      0.119333
     74 H11         0.6970    0.6600   -5.2740 hc        1 77F      0.107500
     75 H111       -0.0180    4.7640   -7.4350 ha        1 77F      0.300000
     76 H202       -1.0740   -1.7480   -0.9120 hn        1 77F      0.262000
     77 C16        -1.9150    2.3070   -4.1090 c2        1 77F     -0.517000
     78 H11A        2.5360    1.6710   -6.6120 hc        1 77F      0.129500
     79 H16        -1.7770    2.3320   -2.9880 h5        1 77F      0.253000
     80 H16A       -2.7540   -0.9780   -2.6010 h1        1 77F      0.161000
@<TRIPOS>BOND
     1    1    2 1   
     2    1    3 1   
     3    1   21 1   
     4    3    8 1   
     5    4    5 1   
     6    4   40 1   
     7    5    9 1   
     8    6    7 1   
     9    6   41 1   
    10    6   42 1   
    11    7    8 1   
    12    7   43 1   
    13    9   44 1   
    14   10   15 1   
    15   10   17 1   
    16   10   53 1   
    17   10   78 1   
    18   11   12 1   
    19   11   52 1   
    20   11   77 1   
    21   12   13 1   
    22   12   46 1   
    23   12   47 1   
    24   13   14 1   
    25   13   15 1   
    26   13   48 1   
    27   14   20 1   
    28   14   49 1   
    29   14   50 1   
    30   15   51 1   
    31   15   74 1   
    32   16   18 1   
    33   16   19 1   
    34   16   56 1   
    35   16   80 1   
    36   17   20 1   
    37   17   36 1   
    38   17   54 1   
    39   18   55 1   
    40   19   22 1   
    41   20   57 1   
    42   20   58 1   
    43   21   59 1   
    44   21   76 1   
    45   22   28 1   
    46   22   60 1   
    47   22   61 1   
    48   23   24 1   
    49   23   62 1   
    50   23   63 1   
    51   24   25 1   
    52   24   64 1   
    53   25   26 1   
    54   25   65 1   
    55   26   27 1   
    56   26   66 1   
    57   27   28 1   
    58   29   30 1   
    59   29   31 1   
    60   29   32 1   
    61   29   77 1   
    62   32   33 1   
    63   32   68 1   
    64   33   35 1   
    65   33   67 1   
    66   34   36 1   
    67   34   45 1   
    68   34   75 1   
    69   35   37 1   
    70   35   69 1   
    71   37   38 1   
    72   37   70 1   
    73   38   39 1   
    74   39   71 1   
    75   39   72 1   
    76   39   73 1   
    77   77   79 1   
@<TRIPOS>SUBSTRUCTURE
     1 77F         1 TEMP              0 ****  ****    0 ROOT
