@<TRIPOS>MOLECULE
77F
   80    77     1     0     0
SMALL
bcc


@<TRIPOS>ATOM
      1 C21        22.2000  -32.8370  147.1400 c2        1 77F      0.306000
      2 O22        22.9190  -32.2040  147.9230 o         1 77F     -0.295000
      3 C22        21.8620  -32.3980  145.7560 c2        1 77F     -0.039000
      4 C27        21.3730  -31.0900  145.6800 c1        1 77F     -0.186000
      5 C26        20.9730  -29.9620  145.6390 c1        1 77F      0.000000
      6 C25        20.9980  -32.0440  142.8100 c2        1 77F     -0.141000
      7 C24        21.8390  -32.9530  143.3130 c2        1 77F     -0.178000
      8 C23        22.0680  -33.2330  144.7100 c2        1 77F     -0.026000
      9 O27        20.4110  -28.7700  145.5760 oh        1 77F     -0.137000
     10 C11       -36.4020   56.6650 -244.2490 c3        1 77F     -0.249500
     11 N11       -38.3540   55.7860 -240.2850 n3        1 77F     -0.600000
     12 C12       -38.7570   56.8620 -241.1670 c3        1 77F     -0.096000
     13 C13       -38.3520   56.6790 -242.6430 c3        1 77F     -0.126000
     14 C14       -38.9870   57.8010 -243.4510 c3        1 77F     -0.183000
     15 C15       -36.8410   56.7100 -242.8010 c3        1 77F     -0.183000
     16 C17        20.9690  -36.9180  145.0140 c3        1 77F     -0.092000
     17 C18       -37.3000   57.2330 -245.2190 c2        1 77F      0.279000
     18 O18        20.1410  -35.9830  145.6750 oh        1 77F     -0.365000
     19 C19        21.6880  -34.5840  148.7970 c1        1 77F     -0.132000
     20 C20       -38.6300   57.7100 -244.9210 c3        1 77F     -0.249500
     21 N20        21.6130  -34.0740  147.5960 n         1 77F     -0.199000
     22 C32        22.4410  -33.9670  149.9320 c3        1 77F     -0.222000
     23 C33        20.9940  -35.5580  151.2300 c3        1 77F     -0.229000
     24 C34        20.8550  -36.4310  152.3940 c2        1 77F      0.007000
     25 C35        21.8390  -36.5250  153.3390 c2        1 77F     -0.205000
     26 C36        23.0210  -35.7570  153.2160 c2        1 77F      0.101000
     27 C37        23.2180  -34.9120  152.1260 c2        1 77F     -0.234000
     28 C38        22.2470  -34.8000  151.1370 c2        1 77F      0.168000
     29 S8        -36.7800   55.7430 -239.5810 s6        1 77F      2.861000
     30 O9        -36.2790   57.0540 -239.7160 o         1 77F     -0.933500
     31 O10       -36.0370   54.7860 -240.2870 o         1 77F     -0.933500
     32 C5        -37.0590   55.3210 -238.0280 c2        1 77F     -0.913000
     33 C4         26.1470  -35.6590  146.2440 c1        1 77F     -0.121000
     34 C6        -36.8040   55.9900 -236.9360 c1        1 77F      0.077000
     35 C3         25.3230  -35.7550  145.3740 c1        1 77F     -0.231000
     36 C7        -36.5530   56.6210 -235.8340 c2        1 77F     -0.183000
     37 C2         24.2380  -35.8310  144.4710 c1        1 77F      0.057000
     38 O1         24.5980  -36.0710  143.2200 os        1 77F     -0.164000
     39 C1         23.5030  -36.1650  142.2840 c3        1 77F     -0.074000
     40 H27        24.1560  -34.3340  152.0430 ha        1 77F      0.184000
     41 H25        20.3780  -31.3860  143.4360 ha        1 77F      0.129500
     42 H24        20.8750  -31.9100  141.7260 ha        1 77F      0.129500
     43 H23        22.4250  -33.5990  142.6300 ha        1 77F      0.128000
     44 HO27       21.1420  -28.1180  145.6110 ho        1 77F      0.245000
     45 H12        20.6520  -37.0470  143.9490 h1        1 77F      0.082667
     46 H12A      -38.3030   57.8250 -240.7880 h1        1 77F      0.120000
     47 H13       -39.8790   56.9650 -241.1270 h1        1 77F      0.120000
     48 H14       -38.7440   55.6910 -243.0120 hc        1 77F      0.106000
     49 H14A      -40.1040   57.7630 -243.3450 hc        1 77F      0.137000
     50 H15       -38.6490   58.7930 -243.0460 hc        1 77F      0.137000
     51 H15A      -36.4290   57.6330 -242.3050 hc        1 77F      0.137000
     52 H17        23.1850  -38.1530  144.0980 ha        1 77F      0.002000
     53 H18       -36.2140   55.5800 -244.5670 hc        1 77F      0.208250
     54 H18A      -36.9600   57.2790 -246.2790 ha        1 77F      0.175000
     55 HO18       19.2330  -36.2980  145.6070 ho        1 77F      0.212000
     56 H19        20.9450  -37.9060  145.5360 h1        1 77F      0.082667
     57 H20       -39.3540   57.0070 -245.4580 hc        1 77F      0.208250
     58 H20A      -38.8030   58.7110 -245.4290 hc        1 77F      0.208250
     59 HN20       22.4860  -34.2480  144.9010 ha        1 77F      0.162000
     60 H32        23.5380  -33.8560  149.6900 hc        1 77F      0.167500
     61 H32A       22.0730  -32.9150  150.1400 hc        1 77F      0.167500
     62 H33        20.9110  -36.1510  150.2370 hc        1 77F      0.239500
     63 H34        20.0990  -34.8630  151.1490 hc        1 77F      0.239500
     64 H35        19.9180  -37.0110  152.4820 ha        1 77F      0.177000
     65 H36        21.7250  -37.1930  154.2120 ha        1 77F      0.183000
     66 H37        23.8000  -35.8380  153.9980 ha        1 77F      0.180000
     67 H4         26.8800  -35.5740  147.0080 ha        1 77F      0.228000
     68 H6        -37.5150   54.3070 -237.8930 h4        1 77F      0.235000
     69 H3        -35.5790   56.5450 -235.3230 ha        1 77F      0.180000
     70 H7        -37.2950   57.2740 -235.3470 ha        1 77F      0.180000
     71 H1         23.5900  -37.1810  141.8270 h1        1 77F      0.103000
     72 H1A        22.5180  -36.0320  142.7930 h1        1 77F      0.103000
     73 H1B        23.6840  -35.3630  141.5280 h1        1 77F      0.103000
     74 H11       -36.3770   55.8300 -242.2710 hc        1 77F      0.137000
     75 H111      -40.0960   54.6020 -240.2870 ha        1 77F      0.085000
     76 H202       21.0850  -34.5920  146.9060 hn        1 77F      0.298000
     77 C16       -39.0660   54.7540 -239.9220 c1        1 77F     -0.147000
     78 H11A      -35.3700   57.1370 -244.3570 hc        1 77F      0.208250
     79 H16        22.0030  -36.4790  145.0570 h1        1 77F      0.082667
     80 H16A       23.7350  -38.3140  144.4620 ha        1 77F      0.002000
@<TRIPOS>BOND
     1    1    2 1   
     2    1    3 1   
     3    1   21 1   
     4    3    4 1   
     5    3    8 1   
     6    4    5 1   
     7    5    9 1   
     8    6    7 1   
     9    6   41 1   
    10    6   42 1   
    11    7    8 1   
    12    7   43 1   
    13    8   59 1   
    14    9   44 1   
    15   10   15 1   
    16   10   17 1   
    17   10   53 1   
    18   10   78 1   
    19   11   12 1   
    20   11   29 1   
    21   11   77 1   
    22   12   13 1   
    23   12   46 1   
    24   12   47 1   
    25   13   14 1   
    26   13   15 1   
    27   13   48 1   
    28   14   20 1   
    29   14   49 1   
    30   14   50 1   
    31   15   51 1   
    32   15   74 1   
    33   16   18 1   
    34   16   45 1   
    35   16   56 1   
    36   16   79 1   
    37   17   20 1   
    38   17   54 1   
    39   18   55 1   
    40   19   21 1   
    41   19   22 1   
    42   20   57 1   
    43   20   58 1   
    44   21   76 1   
    45   22   28 1   
    46   22   60 1   
    47   22   61 1   
    48   23   24 1   
    49   23   28 1   
    50   23   62 1   
    51   23   63 1   
    52   24   25 1   
    53   24   64 1   
    54   25   26 1   
    55   25   65 1   
    56   26   27 1   
    57   26   66 1   
    58   27   28 1   
    59   27   40 1   
    60   29   30 1   
    61   29   31 1   
    62   29   32 1   
    63   32   34 1   
    64   32   68 1   
    65   33   35 1   
    66   33   67 1   
    67   34   36 1   
    68   35   37 1   
    69   36   69 1   
    70   36   70 1   
    71   37   38 1   
    72   38   39 1   
    73   39   71 1   
    74   39   72 1   
    75   39   73 1   
    76   52   80 1   
    77   75   77 1   
@<TRIPOS>SUBSTRUCTURE
     1 77F         1 TEMP              0 ****  ****    0 ROOT
