@<TRIPOS>MOLECULE
77F
   78    70     1     0     0
SMALL
bcc


@<TRIPOS>ATOM
      1 C21         0.2250   -1.0930    3.7270 c1        1 77F      0.341000
      2 O22         1.3500   -0.7070    3.8150 o         1 77F     -0.374000
      3 C22        -0.6310   -1.2860    5.0070 c2        1 77F     -0.090000
      4 C27        -0.0650   -1.0880    6.2560 c2        1 77F     -0.108000
      5 C26        -0.8490   -1.2290    7.4110 c1        1 77F      0.074000
      6 C25        -2.1850   -1.5650    7.3010 c1        1 77F     -0.121500
      7 C24        -2.7530   -1.7630    6.0440 c1        1 77F     -0.121500
      8 C23        -1.9770   -1.6250    4.8990 c1        1 77F     -0.141000
      9 O27        -0.2880   -0.9760    8.6860 oh        1 77F     -0.245000
     10 C11         1.1980    0.2160   -6.2300 c3        1 77F     -0.153000
     11 N11         0.6720    1.0120   -1.6930 n3        1 77F     -0.820000
     12 C12        -0.3550    0.8630   -2.7370 c3        1 77F     -0.010000
     13 C13         0.2140    0.0280   -3.9030 c3        1 77F     -0.117000
     14 C14        -0.8920   -0.8690   -4.4530 c3        1 77F     -0.154000
     15 C15         0.7740    0.9600   -4.9540 c3        1 77F     -0.154000
     16 C16         1.0270   -0.1460   -0.8230 c3        1 77F     -0.016000
     17 C17        -0.0150   -0.3120    0.2480 c3        1 77F     -0.008000
     18 C18         0.0910   -0.6830   -6.7770 c3        1 77F     -0.156000
     19 O18        -1.2420   -0.7470   -0.3420 oh        1 77F     -0.326000
     20 C19         0.4590   -1.3490    1.2520 c3        1 77F     -0.006000
     21 C20        -0.4700   -1.6110   -5.7270 c3        1 77F     -0.153000
     22 N20        -0.3710   -1.3030    2.4170 n2        1 77F     -0.369000
     23 C32         0.3790   -2.7260    0.6210 c3        1 77F     -0.137000
     24 C33         0.7740   -4.9090    1.6320 c1        1 77F     -0.138000
     25 C34         1.5140   -6.0010    2.0650 c1        1 77F     -0.121500
     26 C35         2.8980   -5.8980    2.1980 c1        1 77F     -0.121500
     27 C36         3.5360   -4.7050    1.8990 c1        1 77F     -0.121500
     28 C37         2.7970   -3.6080    1.4640 c1        1 77F     -0.121500
     29 C38         1.4160   -3.7090    1.3310 c1        1 77F     -0.086000
     30 S8          1.5380    2.4900   -1.5470 s4        1 77F      2.064800
     31 O9          2.2580    2.7840   -2.7300 o         1 77F     -0.544900
     32 O10         2.6340    2.3720   -0.5640 o         1 77F     -0.544900
     33 C5          0.4350    3.8120   -1.1220 c1        1 77F     -0.370500
     34 C4         -0.6320    4.1420   -1.9760 c1        1 77F     -0.121500
     35 C6          0.6910    4.5850   -0.0120 c1        1 77F     -0.098500
     36 C3         -1.4250    5.2430   -1.6990 c1        1 77F     -0.121500
     37 C7         -0.1050    5.6900    0.2660 c1        1 77F     -0.098500
     38 C2         -1.1660    6.0190   -0.5810 c1        1 77F     -0.370500
     39 O1         -2.0030    7.1010   -0.2680 o         1 77F     -0.207000
     40 C1         -3.0620    6.7730    0.6280 c3        1 77F     -0.079000
     41 H27         0.8910   -0.8460    6.3340 ha        1 77F      0.172000
     42 H25        -2.7430   -1.6650    8.1210 ha        1 77F      0.141500
     43 H24        -3.6850   -1.9970    5.9680 ha        1 77F      0.141500
     44 H23        -2.3860   -1.7680    4.0000 ha        1 77F      0.139000
     45 HO27       -0.4780   -0.1410    8.9330 ho        1 77F      0.221000
     46 H11         1.9850   -0.3380   -6.0290 hc        1 77F      0.077750
     47 H11A        1.4460    0.8890   -6.9310 hc        1 77F      0.077750
     48 H12        -1.1410    0.4060   -2.3620 h1        1 77F      0.093000
     49 H12A       -0.6250    1.7760   -3.0740 h1        1 77F      0.093000
     50 H13         0.9670   -0.5600   -3.5500 hc        1 77F      0.092000
     51 H14        -1.6850   -0.3100   -4.6570 hc        1 77F      0.085500
     52 H14A       -1.1370   -1.5300   -3.7670 hc        1 77F      0.085500
     53 H15         1.5490    1.4210   -4.5860 hc        1 77F      0.085500
     54 H15A        0.0860    1.6300   -5.1880 hc        1 77F      0.085500
     55 H16         1.9330    0.0210   -0.3890 h1        1 77F      0.114000
     56 H16A        1.0720   -0.9790   -1.3770 h1        1 77F      0.114000
     57 H17        -0.1500    0.5000    0.6800 h1        1 77F      0.104000
     58 H18        -0.6230   -0.1280   -7.1190 hc        1 77F      0.077500
     59 H18A        0.4610   -1.2320   -7.5270 hc        1 77F      0.077500
     60 HO18       -1.9620   -0.4820    0.2000 ho        1 77F      0.204000
     61 H19         1.4060   -1.1550    1.5100 h1        1 77F      0.113000
     62 H20         0.2050   -2.2690   -5.4980 hc        1 77F      0.077750
     63 H20A       -1.2410   -2.0670   -6.0930 hc        1 77F      0.077750
     64 HN20       -1.2790   -1.4680    2.3430 hn        1 77F      0.231000
     65 H32        -0.5220   -3.0770    0.7230 hc        1 77F      0.109000
     66 H32A        0.5960   -2.6560   -0.3360 hc        1 77F      0.109000
     67 H33        -0.1900   -4.9810    1.5400 ha        1 77F      0.129000
     68 H34         1.0530   -6.8650    2.2820 ha        1 77F      0.141500
     69 H35         3.4160   -6.6650    2.5020 ha        1 77F      0.141500
     70 H36         4.5250   -4.6320    1.9950 ha        1 77F      0.141500
     71 H37         3.2550   -2.7560    1.2500 ha        1 77F      0.141500
     72 H4         -0.8150    3.5910   -2.7700 ha        1 77F      0.141500
     73 H6          1.4510    4.3510    0.5950 ha        1 77F      0.161500
     74 H3         -2.2020    5.4840   -2.3200 ha        1 77F      0.141500
     75 H7          0.0770    6.2360    1.0520 ha        1 77F      0.161500
     76 H1         -3.3400    7.5790    1.1140 h1        1 77F      0.089333
     77 H1A        -2.7450    6.0800    1.2830 h1        1 77F      0.089333
     78 H1B        -3.8220    6.4200    0.1210 h1        1 77F      0.089333
@<TRIPOS>BOND
     1    1    2 1   
     2    1    3 1   
     3    3    4 1   
     4    3    8 1   
     5    4    5 1   
     6    4   41 1   
     7    5    9 1   
     8    6    7 1   
     9    6   42 1   
    10    7   43 1   
    11    8   44 1   
    12    9   45 1   
    13   10   15 1   
    14   10   18 1   
    15   10   46 1   
    16   10   47 1   
    17   11   12 1   
    18   11   16 1   
    19   11   30 1   
    20   12   13 1   
    21   12   48 1   
    22   12   49 1   
    23   13   14 1   
    24   13   15 1   
    25   13   50 1   
    26   14   21 1   
    27   14   51 1   
    28   14   52 1   
    29   15   53 1   
    30   15   54 1   
    31   16   17 1   
    32   16   55 1   
    33   16   56 1   
    34   17   19 1   
    35   17   20 1   
    36   17   57 1   
    37   18   21 1   
    38   18   58 1   
    39   18   59 1   
    40   19   60 1   
    41   20   22 1   
    42   20   23 1   
    43   20   61 1   
    44   21   62 1   
    45   21   63 1   
    46   22   64 1   
    47   23   29 1   
    48   23   65 1   
    49   23   66 1   
    50   24   29 1   
    51   24   67 1   
    52   25   26 1   
    53   25   68 1   
    54   26   69 1   
    55   27   28 1   
    56   27   70 1   
    57   28   71 1   
    58   30   31 1   
    59   30   32 1   
    60   33   35 1   
    61   34   36 1   
    62   34   72 1   
    63   35   73 1   
    64   36   74 1   
    65   37   38 1   
    66   37   75 1   
    67   39   40 1   
    68   40   76 1   
    69   40   77 1   
    70   40   78 1   
@<TRIPOS>SUBSTRUCTURE
     1 77F         1 TEMP              0 ****  ****    0 ROOT
