@<TRIPOS>MOLECULE
77F
   80    79     1     0     0
SMALL
bcc


@<TRIPOS>ATOM
      1 C21        -2.2090    3.2940    0.6340 c2        1 77F      0.323000
      2 O22        -1.3220    3.1780   -0.2350 o         1 77F     -0.334000
      3 C22        -2.1400    2.4240    1.8650 c2        1 77F      0.122000
      4 C27        -2.2080    2.9740    3.1310 c2        1 77F     -0.236000
      5 C26        -2.0700    2.1350    4.2590 c2        1 77F      0.267000
      6 C25        -1.8590    0.6750    4.1280 c3        1 77F     -0.237000
      7 C24        -1.8080    0.1910    2.7340 c2        1 77F     -0.030000
      8 C23        -1.9400    1.0220    1.6690 c2        1 77F     -0.167000
      9 O27        -2.1410    2.7250    5.4530 oh        1 77F     -0.150000
     10 C11         1.4780   -0.3520   -9.1930 c3        1 77F     -0.256000
     11 N11        -0.3110    1.1590   -5.3740 n3        1 77F     -0.823000
     12 C12        -0.8740    0.0780   -6.1290 c3        1 77F     -0.004000
     13 C13         0.0970   -0.6270   -7.1000 c3        1 77F     -0.142000
     14 C14        -0.6410   -1.7840   -7.7550 c3        1 77F     -0.170500
     15 C15         0.6080    0.3330   -8.1590 c3        1 77F     -0.170500
     16 C17        -1.1180    0.5910   -2.3420 c3        1 77F      0.004000
     17 C18         1.1940   -1.7400   -9.4610 c2        1 77F      0.278000
     18 O18        -1.7320   -0.2820   -1.4120 oh        1 77F     -0.351000
     19 C19        -0.0950   -0.0680   -3.2090 c2        1 77F     -0.145000
     20 C20         0.2510   -2.5370   -8.7200 c3        1 77F     -0.256000
     21 N20        -3.2400    4.1750    0.5260 n         1 77F     -0.397000
     22 C32         0.2900   -1.3450   -3.0250 c2        1 77F     -0.041000
     23 C33         0.5950   -4.6760   -6.1490 c2        1 77F     -0.219000
     24 C34         1.8610   -4.8830   -6.5280 c2        1 77F     -0.153000
     25 C35         3.0420   -4.2490   -5.9910 c2        1 77F     -0.126000
     26 C36         3.1360   -3.2700   -5.0730 c2        1 77F     -0.053000
     27 C37         2.0960   -2.6080   -4.4120 c1        1 77F     -0.112000
     28 C38         1.2580   -2.0130   -3.7870 c1        1 77F     -0.122000
     29 S8         -0.5020    2.7250   -5.8560 s6        1 77F      2.839000
     30 O9         -0.9910    2.7120   -7.1820 o         1 77F     -0.929500
     31 O10         0.7120    3.4130   -5.6460 o         1 77F     -0.929500
     32 C5         -1.6580    3.3320   -4.8020 c2        1 77F     -0.834000
     33 C4         -1.3390    4.2320   -3.8420 c2        1 77F      0.115000
     34 C6         -3.0040    2.8430   -5.0370 c2        1 77F     -0.433000
     35 C3         -2.1990    4.8650   -2.8870 c2        1 77F     -0.267000
     36 C7         -3.6790    1.9820   -4.3080 c1        1 77F      0.198000
     37 C2         -3.5050    5.1470   -3.0940 c2        1 77F      0.062000
     38 O1         -4.2080    5.7100   -2.0560 os        1 77F     -0.245000
     39 C1         -5.4760    6.2640   -2.4290 c3        1 77F     -0.080000
     40 H27        -2.3490    4.0590    3.2900 ha        1 77F      0.208000
     41 H25        -2.6830    0.1220    4.6820 hc        1 77F      0.205500
     42 H24        -0.8910    0.3870    4.6500 hc        1 77F      0.205500
     43 H23        -1.6480   -0.8950    2.6020 ha        1 77F      0.191000
     44 HO27       -2.0310    2.0790    6.1820 ho        1 77F      0.284000
     45 H12        -3.4410   -0.4610   -3.8600 ha        1 77F      0.001500
     46 H12A       -1.7430    0.4760   -6.7330 h1        1 77F      0.107000
     47 H13        -1.2730   -0.7040   -5.4180 h1        1 77F      0.107000
     48 H14         0.9660   -1.0330   -6.5080 hc        1 77F      0.109000
     49 H14A       -1.0000   -2.5020   -6.9670 hc        1 77F      0.129750
     50 H15        -1.5450   -1.4000   -8.2990 hc        1 77F      0.129750
     51 H15A        1.2080    1.1530   -7.6780 hc        1 77F      0.129750
     52 H17         1.4650    0.3130   -4.6390 h1        1 77F      0.107000
     53 H18         2.5770   -0.2910   -8.8870 hc        1 77F      0.208750
     54 H18A        1.7660   -2.2370  -10.2780 ha        1 77F      0.175000
     55 HO18       -2.2650   -0.9130   -1.9130 ho        1 77F      0.214000
     56 H19        -0.6330    1.3840   -1.7010 h1        1 77F      0.111500
     57 H20         0.8640   -3.3200   -8.1310 hc        1 77F      0.208750
     58 H20A       -0.3690   -3.1720   -9.4280 hc        1 77F      0.208750
     59 HN20       -3.9490    4.2350    1.2130 hn        1 77F      0.257500
     60 H32        -1.8750    0.6430    0.6240 ha        1 77F      0.227000
     61 H32A       -0.1480   -1.9450   -2.2020 ha        1 77F      0.157000
     62 H33         0.3120   -3.9690   -5.3560 ha        1 77F      0.126000
     63 H34        -0.2390   -5.2460   -6.5830 ha        1 77F      0.126000
     64 H35         2.0750   -5.6470   -7.3010 ha        1 77F      0.134000
     65 H36         3.9910   -4.6630   -6.3880 ha        1 77F      0.145000
     66 H37         4.1460   -2.9250   -4.7620 ha        1 77F      0.159000
     67 H4         -0.2660    4.5220   -3.7400 ha        1 77F      0.167000
     68 H6         -3.4900    3.2400   -5.9620 ha        1 77F      0.217000
     69 H3         -1.7180    5.1390   -1.9290 ha        1 77F      0.162000
     70 H7         -4.0490    4.9650   -4.0360 h4        1 77F      0.155000
     71 H1         -6.1410    5.4640   -2.8350 h1        1 77F      0.100667
     72 H1A        -5.8780    6.6730   -1.4690 h1        1 77F      0.100667
     73 H1B        -5.3320    7.0800   -3.1780 h1        1 77F      0.100667
     74 H11        -0.2640    0.8380   -8.6630 hc        1 77F      0.129750
     75 H111       -3.1720   -1.0830   -3.8700 ha        1 77F      0.001500
     76 H202       -3.3210    4.7340   -0.2970 hn        1 77F      0.257500
     77 C16         0.5280    0.8180   -4.2540 c3        1 77F      0.015000
     78 H11A        1.4510    0.2330  -10.1700 hc        1 77F      0.208750
     79 H16        -1.9070    1.0720   -2.9890 h1        1 77F      0.111500
     80 H16A        0.8500    1.7810   -3.7520 h1        1 77F      0.107000
@<TRIPOS>BOND
     1    1    2 1   
     2    1    3 1   
     3    1   21 1   
     4    3    4 1   
     5    3    8 1   
     6    4    5 1   
     7    4   40 1   
     8    5    6 1   
     9    5    9 1   
    10    6    7 1   
    11    6   41 1   
    12    6   42 1   
    13    7    8 1   
    14    7   43 1   
    15    8   60 1   
    16    9   44 1   
    17   10   15 1   
    18   10   17 1   
    19   10   53 1   
    20   10   78 1   
    21   11   12 1   
    22   11   29 1   
    23   11   77 1   
    24   12   13 1   
    25   12   46 1   
    26   12   47 1   
    27   13   14 1   
    28   13   15 1   
    29   13   48 1   
    30   14   20 1   
    31   14   49 1   
    32   14   50 1   
    33   15   51 1   
    34   15   74 1   
    35   16   18 1   
    36   16   19 1   
    37   16   56 1   
    38   16   79 1   
    39   17   20 1   
    40   17   54 1   
    41   18   55 1   
    42   19   22 1   
    43   19   77 1   
    44   20   57 1   
    45   20   58 1   
    46   21   59 1   
    47   21   76 1   
    48   22   28 1   
    49   22   61 1   
    50   23   24 1   
    51   23   62 1   
    52   23   63 1   
    53   24   25 1   
    54   24   64 1   
    55   25   26 1   
    56   25   65 1   
    57   26   27 1   
    58   26   66 1   
    59   27   28 1   
    60   29   30 1   
    61   29   31 1   
    62   29   32 1   
    63   32   33 1   
    64   32   34 1   
    65   33   35 1   
    66   33   67 1   
    67   34   36 1   
    68   34   68 1   
    69   35   37 1   
    70   35   69 1   
    71   37   38 1   
    72   37   70 1   
    73   38   39 1   
    74   39   71 1   
    75   39   72 1   
    76   39   73 1   
    77   45   75 1   
    78   52   77 1   
    79   77   80 1   
@<TRIPOS>SUBSTRUCTURE
     1 77F         1 TEMP              0 ****  ****    0 ROOT
