@<TRIPOS>MOLECULE
77Z
   60    57     1     0     0
SMALL
bcc


@<TRIPOS>ATOM
      1 O55        -6.1030    3.0710    6.1550 o         1 77Z     -0.376000
      2 C51        -5.3210    3.9710    5.9660 c1        1 77Z      0.299000
      3 N54        -5.6360    5.3050    6.4140 n3        1 77Z     -0.412000
      4 C50        -4.0400    3.7090    5.2150 c2        1 77Z     -0.047000
      5 O49        -4.0580    2.4100    4.7010 os        1 77Z     -0.231000
      6 C19        -2.9590    2.1080    3.8770 c2        1 77Z     -0.023000
      7 C18        -1.7640    1.6280    4.4480 c2        1 77Z     -0.048000
      8 C20        -3.0810    2.2090    2.4730 c1        1 77Z      0.008000
      9 C14        -2.0180    1.8320    1.6500 c1        1 77Z     -0.889000
     10 S15        -2.0450    2.1200   -0.0690 s4        1 77Z      2.094800
     11 O21        -2.5260    3.4320   -0.3300 o         1 77Z     -0.536400
     12 O22        -2.9110    1.1910   -0.6490 o         1 77Z     -0.536400
     13 N16        -0.6850    1.9390   -0.6920 n2        1 77Z     -0.622000
     14 C13        -0.8040    1.3450    2.2330 c1        1 77Z      0.202000
     15 C17        -0.6870    1.2470    3.6200 c2        1 77Z     -0.201000
     16 N12         0.4000    0.9610    1.2580 n2        1 77Z     -0.622000
     17 C11         0.1470    0.9480   -0.1800 c3        1 77Z      0.184000
     18 C9         -0.4950   -0.4820   -0.5540 c3        1 77Z     -0.203000
     19 C8          0.6800   -1.4060   -0.6760 c2        1 77Z      0.319000
     20 O24         0.9470   -2.1400    0.2140 o         1 77Z     -0.351000
     21 C10        -1.1570   -0.2650   -1.7110 c2        1 77Z      0.290000
     22 O23        -2.3220   -0.4490   -1.7690 o         1 77Z     -0.284000
     23 C4         -0.3020   -0.2220   -3.0320 c2        1 77Z     -0.208000
     24 C5         -0.8180    0.2500   -4.2330 c2        1 77Z     -0.034000
     25 C6          0.0230    0.3920   -5.3570 c1        1 77Z     -0.169000
     26 C3          1.1160   -0.5730   -2.9350 c1        1 77Z      0.130000
     27 C2          1.9420   -0.4330   -4.0420 c1        1 77Z     -0.124500
     28 C1          1.4110    0.0490   -5.2640 c1        1 77Z     -0.124500
     29 N7          1.6090   -1.1290   -1.6250 n         1 77Z     -0.261000
     30 C33         2.9640   -1.7420   -1.5370 c3        1 77Z     -0.036000
     31 C34         2.9030   -3.2320   -2.0430 c3        1 77Z     -0.180000
     32 C37         4.1600   -3.9940   -1.5610 c3        1 77Z     -0.105000
     33 C44         3.7790   -5.3840   -1.1730 c3        1 77Z     -0.210500
     34 C40         5.1830   -4.0440   -2.6740 c3        1 77Z     -0.210500
     35 HN54       -6.2930    5.4340    7.0440 hn        1 77Z      0.231500
     36 HN5A       -5.1400    6.0260    6.1080 hn        1 77Z      0.231500
     37 H50        -3.9590    4.3250    4.5080 h4        1 77Z      0.109500
     38 H50A       -3.2610    3.8110    5.8360 h4        1 77Z      0.109500
     39 H18        -1.6930    1.5270    5.4130 ha        1 77Z      0.150000
     40 H20        -3.9520    2.4500    2.0720 ha        1 77Z      0.163000
     41 HN16       -0.5020    2.3130   -1.4920 hn        1 77Z      0.260500
     42 H17         0.1440    0.9120    4.0200 ha        1 77Z      0.148000
     43 HN12        0.7430    0.1870    1.5050 hn        1 77Z      0.260500
     44 H11         1.0210    1.0180   -0.6420 h2        1 77Z      0.129000
     45 H9         -1.0850   -0.6930    0.2060 hc        1 77Z      0.163000
     46 H5         -1.7860    0.4900   -4.3000 ha        1 77Z      0.161000
     47 H6         -0.3450    0.7250   -6.2070 ha        1 77Z      0.148000
     48 H2          2.9020   -0.6730   -3.9780 ha        1 77Z      0.145500
     49 H1          1.9890    0.1490   -6.0390 ha        1 77Z      0.145500
     50 H33         3.5900   -1.2350   -2.0930 h1        1 77Z      0.112500
     51 H33A        3.2700   -1.7250   -0.5980 h1        1 77Z      0.112500
     52 H34         2.8700   -3.2430   -2.9980 hc        1 77Z      0.094500
     53 H34A        2.1030   -3.6650   -1.6860 hc        1 77Z      0.094500
     54 H37         4.5390   -3.5400   -0.7980 hc        1 77Z      0.090000
     55 H44         4.5690   -5.8790   -0.9390 hc        1 77Z      0.076000
     56 H44A        3.1760   -5.3540   -0.4090 hc        1 77Z      0.076000
     57 H44B        3.3250   -5.8260   -1.9350 hc        1 77Z      0.076000
     58 H40         4.7690   -4.3500   -3.4740 hc        1 77Z      0.076000
     59 H40A        5.5530   -3.1410   -2.8200 hc        1 77Z      0.076000
     60 H40B        5.9200   -4.6680   -2.4220 hc        1 77Z      0.076000
@<TRIPOS>BOND
     1    1    2 1   
     2    2    3 1   
     3    3   35 1   
     4    3   36 1   
     5    4    5 1   
     6    4   37 1   
     7    4   38 1   
     8    5    6 1   
     9    6    7 1   
    10    6    8 1   
    11    7   15 1   
    12    7   39 1   
    13    8   40 1   
    14    9   10 1   
    15    9   14 1   
    16   10   11 1   
    17   10   12 1   
    18   13   17 1   
    19   13   41 1   
    20   14   15 1   
    21   15   42 1   
    22   16   17 1   
    23   16   43 1   
    24   17   18 1   
    25   17   44 1   
    26   18   19 1   
    27   18   21 1   
    28   18   45 1   
    29   19   20 1   
    30   19   29 1   
    31   21   22 1   
    32   21   23 1   
    33   23   24 1   
    34   23   26 1   
    35   24   25 1   
    36   24   46 1   
    37   25   47 1   
    38   26   29 1   
    39   27   28 1   
    40   27   48 1   
    41   28   49 1   
    42   29   30 1   
    43   30   31 1   
    44   30   50 1   
    45   30   51 1   
    46   31   32 1   
    47   31   52 1   
    48   31   53 1   
    49   32   33 1   
    50   32   34 1   
    51   32   54 1   
    52   33   55 1   
    53   33   56 1   
    54   33   57 1   
    55   34   58 1   
    56   34   59 1   
    57   34   60 1   
@<TRIPOS>SUBSTRUCTURE
     1 77Z         1 TEMP              0 ****  ****    0 ROOT
