@<TRIPOS>MOLECULE
77Z
   61    64     1     0     0
SMALL
bcc


@<TRIPOS>ATOM
      1 O55        -0.4740   -0.8830   -0.4000 o         1 77Z     -0.406100
      2 C51         0.1950   -0.1060   -1.0650 c         1 77Z      0.502100
      3 N54        -0.4350    0.3470   -2.3490 n4        1 77Z     -0.755400
      4 C50         1.5670    0.4180   -0.6660 c3        1 77Z      0.068400
      5 O49         2.1860    1.2880   -1.5910 os        1 77Z     -0.300900
      6 C19         2.6320    0.6260   -2.7410 ca        1 77Z     -0.046900
      7 C18         3.7330   -0.2640   -2.7280 ca        1 77Z     -0.035000
      8 C20         1.9710    0.9050   -3.9200 ca        1 77Z     -0.030000
      9 C14         2.1650    0.0840   -5.0410 ca        1 77Z     -0.494500
     10 S15         0.8760    0.0800   -6.1160 sy        1 77Z      1.558200
     11 O21         0.7960    1.2460   -6.8660 o         1 77Z     -0.672800
     12 O22        -0.2450   -0.1370   -5.2440 o         1 77Z     -0.672800
     13 N16         1.2220   -1.2280   -6.9870 n3        1 77Z     -0.932100
     14 C13         3.2440   -0.8350   -5.0520 ca        1 77Z      0.336600
     15 C17         4.0600   -0.9520   -3.8720 ca        1 77Z     -0.184000
     16 N12         3.4700   -1.6200   -6.1460 nh        1 77Z     -0.781600
     17 C11         2.5940   -1.5660   -7.3260 c3        1 77Z      0.549700
     18 C9          2.6830   -2.8980   -8.1440 c3        1 77Z     -0.260700
     19 C8          4.1280   -3.1560   -8.5470 c         1 77Z      0.706500
     20 O24         4.9350   -3.5350   -7.6710 o         1 77Z     -0.638500
     21 C10         1.7080   -2.8580   -9.3040 c         1 77Z      0.601700
     22 O23         0.5100   -3.0850   -9.0900 o         1 77Z     -0.529100
     23 C4          2.2500   -2.5320  -10.6190 ca        1 77Z     -0.233600
     24 C5          1.3620   -2.1730  -11.6450 ca        1 77Z     -0.032000
     25 C6          1.8350   -1.8270  -12.9040 ca        1 77Z     -0.160000
     26 C3          3.6460   -2.5730  -10.8670 ca        1 77Z      0.114600
     27 C2          4.1090   -2.2030  -12.1510 ca        1 77Z     -0.179000
     28 C1          3.2090   -1.8390  -13.1470 ca        1 77Z     -0.053000
     29 N7          4.5380   -2.9910   -9.8610 n         1 77Z     -0.349000
     30 C33         5.9200   -3.3080  -10.2030 c3        1 77Z      0.079000
     31 C34         6.8670   -2.1080  -10.1820 c3        1 77Z     -0.097400
     32 C37         8.2450   -2.5000  -10.6970 c3        1 77Z     -0.065700
     33 C44         9.0520   -1.2520  -10.9970 c3        1 77Z     -0.093600
     34 C40         8.9840   -3.3720   -9.7030 c3        1 77Z     -0.093600
     35 HN54       -0.0590   -0.1820   -3.1630 hn        1 77Z      0.483133
     36 HN5A       -1.4520    0.1960   -2.3290 hn        1 77Z      0.483133
     37 H50         1.4360    1.0450    0.2660 h1        1 77Z      0.131700
     38 H50A        2.2070   -0.4830   -0.4480 h1        1 77Z      0.131700
     39 H18         4.3210   -0.3890   -1.8040 ha        1 77Z      0.165000
     40 H20         1.2580    1.7470   -3.9900 ha        1 77Z      0.152000
     41 HN16        0.5400   -1.9090   -7.2530 hn        1 77Z      0.493800
     42 H17         4.9390   -1.6170   -3.8860 ha        1 77Z      0.170000
     43 HN12        4.1680   -2.3380   -6.1120 hn        1 77Z      0.491800
     44 H11         3.0010   -0.7290   -7.9890 h2        1 77Z      0.093700
     45 H9          2.3840   -3.7620   -7.4770 hc        1 77Z      0.127700
     46 H5          0.2800   -2.1730  -11.4300 ha        1 77Z      0.163000
     47 H6          1.1320   -1.5460  -13.7030 ha        1 77Z      0.157000
     48 H2          5.1860   -2.1940  -12.3830 ha        1 77Z      0.156000
     49 H1          3.5930   -1.5560  -14.1410 ha        1 77Z      0.153000
     50 H33         6.2920   -4.0750   -9.4600 h1        1 77Z      0.078700
     51 H33A        5.9300   -3.7890  -11.2230 h1        1 77Z      0.078700
     52 H34         6.9550   -1.7150   -9.1360 hc        1 77Z      0.051200
     53 H34A        6.4580   -1.2810  -10.8200 hc        1 77Z      0.051200
     54 H37         8.1200   -3.0790  -11.6560 hc        1 77Z      0.048700
     55 H44        10.0640   -1.5310  -11.3760 hc        1 77Z      0.039700
     56 H44A        8.5420   -0.6320  -11.7730 hc        1 77Z      0.039700
     57 H44B        9.1760   -0.6350  -10.0750 hc        1 77Z      0.039700
     58 H40        10.0040   -3.6140  -10.0890 hc        1 77Z      0.039700
     59 H40A        9.0940   -2.8460   -8.7240 hc        1 77Z      0.039700
     60 H40B        8.4370   -4.3300   -9.5320 hc        1 77Z      0.039700
     61 H543       -0.2370    1.3410   -2.5020 hn        1 77Z      0.483133
@<TRIPOS>BOND
     1    1    2 2   
     2    2    3 1   
     3    2    4 1   
     4    3   35 1   
     5    3   36 1   
     6    3   61 1   
     7    4    5 1   
     8    4   37 1   
     9    4   38 1   
    10    5    6 1   
    11    6    7 ar  
    12    6    8 ar  
    13    7   15 ar  
    14    7   39 1   
    15    8    9 ar  
    16    8   40 1   
    17    9   10 1   
    18    9   14 ar  
    19   10   11 2   
    20   10   12 2   
    21   10   13 1   
    22   13   17 1   
    23   13   41 1   
    24   14   15 ar  
    25   14   16 1   
    26   15   42 1   
    27   16   17 1   
    28   16   43 1   
    29   17   18 1   
    30   17   44 1   
    31   18   19 1   
    32   18   21 1   
    33   18   45 1   
    34   19   20 2   
    35   19   29 1   
    36   21   22 2   
    37   21   23 1   
    38   23   24 ar  
    39   23   26 ar  
    40   24   25 ar  
    41   24   46 1   
    42   25   28 ar  
    43   25   47 1   
    44   26   27 ar  
    45   26   29 1   
    46   27   28 ar  
    47   27   48 1   
    48   28   49 1   
    49   29   30 1   
    50   30   31 1   
    51   30   50 1   
    52   30   51 1   
    53   31   32 1   
    54   31   52 1   
    55   31   53 1   
    56   32   33 1   
    57   32   34 1   
    58   32   54 1   
    59   33   55 1   
    60   33   56 1   
    61   33   57 1   
    62   34   58 1   
    63   34   59 1   
    64   34   60 1   
@<TRIPOS>SUBSTRUCTURE
     1 77Z         1 TEMP              0 ****  ****    0 ROOT
