@<TRIPOS>MOLECULE
77Z
   60    63     1     0     0
SMALL
bcc


@<TRIPOS>ATOM
      1 O55         7.9330    0.6120   -1.6430 o         1 77Z     -0.618100
      2 C51         7.2980    0.3610   -0.5970 c         1 77Z      0.627100
      3 N54         6.9900   -0.9250   -0.2510 n         1 77Z     -0.658000
      4 C50         6.8990    1.5060    0.3280 c3        1 77Z      0.054400
      5 O49         5.9130    1.1680    1.2980 os        1 77Z     -0.330900
      6 C19         4.6110    1.0890    0.8140 ca        1 77Z      0.022100
      7 C18         3.9790    2.1880    0.2020 ca        1 77Z     -0.055000
      8 C20         3.9050   -0.0840    1.0530 ca        1 77Z      0.000000
      9 C14         2.5560   -0.1980    0.6890 ca        1 77Z     -0.439500
     10 S15         1.7870   -1.6640    0.9900 sy        1 77Z      1.539200
     11 O21         1.2940   -1.6900    2.3010 o         1 77Z     -0.649300
     12 O22         2.6360   -2.7310    0.6410 o         1 77Z     -0.649300
     13 N16         0.5660   -1.5640   -0.0850 n3        1 77Z     -0.925100
     14 C13         1.9130    0.9020    0.0690 ca        1 77Z      0.280600
     15 C17         2.6550    2.0940   -0.1760 ca        1 77Z     -0.194000
     16 N12         0.5630    0.8730   -0.2530 nh        1 77Z     -0.789600
     17 C11        -0.2300   -0.3600   -0.1650 c3        1 77Z      0.539700
     18 C9         -1.2820   -0.4400   -1.3270 c3        1 77Z     -0.264700
     19 C8         -2.1510    0.8050   -1.3120 c         1 77Z      0.712500
     20 O24        -1.7130    1.8610   -1.8110 o         1 77Z     -0.627500
     21 C10        -2.0620   -1.7300   -1.2080 c         1 77Z      0.599700
     22 O23        -1.6130   -2.7690   -1.7060 o         1 77Z     -0.521100
     23 C4         -3.3220   -1.6660   -0.4650 ca        1 77Z     -0.226600
     24 C5         -3.8880   -2.8540    0.0160 ca        1 77Z     -0.034000
     25 C6         -5.0630   -2.8320    0.7560 ca        1 77Z     -0.168000
     26 C3         -3.9590   -0.4220   -0.2230 ca        1 77Z      0.120600
     27 C2         -5.1490   -0.4190    0.5430 ca        1 77Z     -0.186000
     28 C1         -5.6830   -1.6100    1.0200 ca        1 77Z     -0.062000
     29 N7         -3.4280    0.7660   -0.7570 n         1 77Z     -0.361000
     30 C33        -4.2220    1.9850   -0.7500 c3        1 77Z      0.084000
     31 C34        -4.1020    2.8120    0.5310 c3        1 77Z     -0.099400
     32 C37        -5.0490    4.0030    0.4970 c3        1 77Z     -0.064700
     33 C44        -5.2000    4.5770    1.8920 c3        1 77Z     -0.092600
     34 C40        -4.5620    5.0730   -0.4570 c3        1 77Z     -0.092600
     35 HN54        7.2270   -1.6690   -0.8590 hn        1 77Z      0.319000
     36 HN5A        6.4450   -1.1120    0.5520 hn        1 77Z      0.319000
     37 H50         7.7920    1.7910    0.9500 h1        1 77Z      0.086200
     38 H50A        6.5740    2.3730   -0.3030 h1        1 77Z      0.086200
     39 H18         4.5410    3.1180    0.0260 ha        1 77Z      0.148000
     40 H20         4.4080   -0.9380    1.5400 ha        1 77Z      0.157000
     41 HN16        0.4180   -2.2320   -0.8060 hn        1 77Z      0.475800
     42 H17         2.1660    2.9540   -0.6600 ha        1 77Z      0.148000
     43 HN12        0.2540    1.5440   -0.9270 hn        1 77Z      0.455800
     44 H11        -0.8160   -0.2700    0.8120 h2        1 77Z      0.088700
     45 H9         -0.7380   -0.4450   -2.3170 hc        1 77Z      0.123700
     46 H5         -3.3770   -3.8080   -0.2040 ha        1 77Z      0.161000
     47 H6         -5.4980   -3.7690    1.1340 ha        1 77Z      0.148000
     48 H2         -5.6640    0.5250    0.7810 ha        1 77Z      0.149000
     49 H1         -6.6090   -1.5840    1.6160 ha        1 77Z      0.142000
     50 H33        -3.8830    2.6200   -1.6220 h1        1 77Z      0.072700
     51 H33A       -5.3000    1.7090   -0.9280 h1        1 77Z      0.072700
     52 H34        -4.3400    2.1760    1.4240 hc        1 77Z      0.055200
     53 H34A       -3.0470    3.1740    0.6480 hc        1 77Z      0.055200
     54 H37        -6.0610    3.6480    0.1490 hc        1 77Z      0.043700
     55 H44        -4.2100    4.9100    2.2870 hc        1 77Z      0.037533
     56 H44A       -5.8880    5.4550    1.8750 hc        1 77Z      0.037533
     57 H44B       -5.6190    3.8110    2.5880 hc        1 77Z      0.037533
     58 H40        -3.5460    5.4300   -0.1620 hc        1 77Z      0.037533
     59 H40A       -4.5100    4.6800   -1.5000 hc        1 77Z      0.037533
     60 H40B       -5.2600    5.9460   -0.4440 hc        1 77Z      0.037533
@<TRIPOS>BOND
     1    1    2 2   
     2    2    3 1   
     3    2    4 1   
     4    3   35 1   
     5    3   36 1   
     6    4    5 1   
     7    4   37 1   
     8    4   38 1   
     9    5    6 1   
    10    6    7 ar  
    11    6    8 ar  
    12    7   15 ar  
    13    7   39 1   
    14    8    9 ar  
    15    8   40 1   
    16    9   10 1   
    17    9   14 ar  
    18   10   11 2   
    19   10   12 2   
    20   10   13 1   
    21   13   17 1   
    22   13   41 1   
    23   14   15 ar  
    24   14   16 1   
    25   15   42 1   
    26   16   17 1   
    27   16   43 1   
    28   17   18 1   
    29   17   44 1   
    30   18   19 1   
    31   18   21 1   
    32   18   45 1   
    33   19   20 2   
    34   19   29 1   
    35   21   22 2   
    36   21   23 1   
    37   23   24 ar  
    38   23   26 ar  
    39   24   25 ar  
    40   24   46 1   
    41   25   28 ar  
    42   25   47 1   
    43   26   27 ar  
    44   26   29 1   
    45   27   28 ar  
    46   27   48 1   
    47   28   49 1   
    48   29   30 1   
    49   30   31 1   
    50   30   50 1   
    51   30   51 1   
    52   31   32 1   
    53   31   52 1   
    54   31   53 1   
    55   32   33 1   
    56   32   34 1   
    57   32   54 1   
    58   33   55 1   
    59   33   56 1   
    60   33   57 1   
    61   34   58 1   
    62   34   59 1   
    63   34   60 1   
@<TRIPOS>SUBSTRUCTURE
     1 77Z         1 TEMP              0 ****  ****    0 ROOT
