@<TRIPOS>MOLECULE
77Z
   61    64     1     0     0
SMALL
bcc


@<TRIPOS>ATOM
      1 O55        -1.9100    0.5440   -0.8360 o         1 77Z     -0.400100
      2 C51        -0.7990    0.2620   -1.2600 c         1 77Z      0.501100
      3 N54        -0.2340    1.2170   -2.2720 n4        1 77Z     -0.765400
      4 C50         0.0010   -0.9660   -0.8430 c3        1 77Z      0.068400
      5 O49         1.3970   -0.8340   -0.9570 os        1 77Z     -0.296900
      6 C19         1.9390   -0.9390   -2.2380 ca        1 77Z     -0.008900
      7 C18         3.3580   -0.8810   -2.3130 ca        1 77Z     -0.025000
      8 C20         1.1830   -1.0160   -3.3850 ca        1 77Z     -0.106000
      9 C14         1.7700   -0.7460   -4.6360 ca        1 77Z     -0.486500
     10 S15         0.6690   -0.3570   -5.8320 sy        1 77Z      1.565200
     11 O21        -0.1510    0.6410   -5.2080 o         1 77Z     -0.679800
     12 O22        -0.0470   -1.4690   -6.2680 o         1 77Z     -0.679800
     13 N16         1.6280    0.2560   -6.9640 n3        1 77Z     -0.929100
     14 C13         3.1720   -0.6220   -4.7370 ca        1 77Z      0.324600
     15 C17         3.9620   -0.7670   -3.5400 ca        1 77Z     -0.171000
     16 N12         3.7610   -0.2770   -5.9180 nh        1 77Z     -0.769600
     17 C11         3.0320   -0.0600   -7.1690 c3        1 77Z      0.564700
     18 C9          3.2050   -1.2500   -8.1810 c3        1 77Z     -0.290700
     19 C8          4.6690   -1.5800   -8.4570 c         1 77Z      0.717500
     20 O24         5.5930   -1.1290   -7.7510 o         1 77Z     -0.644500
     21 C10         2.5040   -0.9820   -9.5010 c         1 77Z      0.608700
     22 O23         1.7910    0.0050   -9.7030 o         1 77Z     -0.527100
     23 C4          2.7470   -2.0330  -10.4950 ca        1 77Z     -0.233600
     24 C5          1.7840   -2.2960  -11.4750 ca        1 77Z     -0.035000
     25 C6          1.9860   -3.3070  -12.4080 ca        1 77Z     -0.156000
     26 C3          3.9590   -2.7720  -10.4590 ca        1 77Z      0.104600
     27 C2          4.1480   -3.7910  -11.4180 ca        1 77Z     -0.170000
     28 C1          3.1660   -4.0510  -12.3690 ca        1 77Z     -0.060000
     29 N7          4.9440   -2.4720   -9.4930 n         1 77Z     -0.355000
     30 C33         6.3210   -2.8900   -9.7180 c3        1 77Z      0.080000
     31 C34         7.0060   -2.2300  -10.9130 c3        1 77Z     -0.101400
     32 C37         8.4080   -2.7910  -11.1090 c3        1 77Z     -0.063700
     33 C44         8.9040   -2.4540  -12.5010 c3        1 77Z     -0.093600
     34 C40         9.3710   -2.2560  -10.0700 c3        1 77Z     -0.093600
     35 HN54       -0.6260    2.1560   -2.1360 hn        1 77Z      0.484467
     36 HN5A        0.7880    1.2520   -2.1940 hn        1 77Z      0.484467
     37 H50        -0.1650   -1.1070    0.2690 h1        1 77Z      0.137200
     38 H50A       -0.4050   -1.8510   -1.4070 h1        1 77Z      0.137200
     39 H18         3.9460   -0.9320   -1.3820 ha        1 77Z      0.177000
     40 H20         0.1090   -1.2700   -3.3690 ha        1 77Z      0.143000
     41 HN16        1.2840    0.8430   -7.6980 hn        1 77Z      0.497800
     42 H17         5.0620   -0.7560   -3.6120 ha        1 77Z      0.171000
     43 HN12        4.7590   -0.3150   -6.0100 hn        1 77Z      0.496800
     44 H11         3.5270    0.8440   -7.6590 h2        1 77Z      0.104700
     45 H9          2.7340   -2.1810   -7.7450 hc        1 77Z      0.124700
     46 H5          0.8630   -1.6890  -11.4930 ha        1 77Z      0.160000
     47 H6          1.2230   -3.5160  -13.1720 ha        1 77Z      0.155000
     48 H2          5.0710   -4.3900  -11.4320 ha        1 77Z      0.154000
     49 H1          3.3310   -4.8560  -13.1050 ha        1 77Z      0.152000
     50 H33         6.3200   -4.0100   -9.8500 h1        1 77Z      0.074700
     51 H33A        6.9120   -2.6580   -8.7840 h1        1 77Z      0.074700
     52 H34         6.4020   -2.4090  -11.8420 hc        1 77Z      0.055200
     53 H34A        7.0650   -1.1210  -10.7570 hc        1 77Z      0.055200
     54 H37         8.3640   -3.9130  -11.0110 hc        1 77Z      0.046700
     55 H44         8.9290   -1.3480  -12.6510 hc        1 77Z      0.039367
     56 H44A        8.2350   -2.9020  -13.2750 hc        1 77Z      0.039367
     57 H44B        9.9350   -2.8540  -12.6500 hc        1 77Z      0.039367
     58 H40         9.0460   -2.5440   -9.0420 hc        1 77Z      0.039367
     59 H40A        9.4290   -1.1420  -10.1240 hc        1 77Z      0.039367
     60 H40B       10.3930   -2.6700  -10.2450 hc        1 77Z      0.039367
     61 H543       -0.4730    0.9110   -3.2420 hn        1 77Z      0.484467
@<TRIPOS>BOND
     1    1    2 2   
     2    2    3 1   
     3    2    4 1   
     4    3   35 1   
     5    3   36 1   
     6    3   61 1   
     7    4    5 1   
     8    4   37 1   
     9    4   38 1   
    10    5    6 1   
    11    6    7 ar  
    12    6    8 ar  
    13    7   15 ar  
    14    7   39 1   
    15    8    9 ar  
    16    8   40 1   
    17    9   10 1   
    18    9   14 ar  
    19   10   11 2   
    20   10   12 2   
    21   10   13 1   
    22   13   17 1   
    23   13   41 1   
    24   14   15 ar  
    25   14   16 1   
    26   15   42 1   
    27   16   17 1   
    28   16   43 1   
    29   17   18 1   
    30   17   44 1   
    31   18   19 1   
    32   18   21 1   
    33   18   45 1   
    34   19   20 2   
    35   19   29 1   
    36   21   22 2   
    37   21   23 1   
    38   23   24 ar  
    39   23   26 ar  
    40   24   25 ar  
    41   24   46 1   
    42   25   28 ar  
    43   25   47 1   
    44   26   27 ar  
    45   26   29 1   
    46   27   28 ar  
    47   27   48 1   
    48   28   49 1   
    49   29   30 1   
    50   30   31 1   
    51   30   50 1   
    52   30   51 1   
    53   31   32 1   
    54   31   52 1   
    55   31   53 1   
    56   32   33 1   
    57   32   34 1   
    58   32   54 1   
    59   33   55 1   
    60   33   56 1   
    61   33   57 1   
    62   34   58 1   
    63   34   59 1   
    64   34   60 1   
@<TRIPOS>SUBSTRUCTURE
     1 77Z         1 TEMP              0 ****  ****    0 ROOT
