@<TRIPOS>MOLECULE
77Z
   61    64     1     0     0
SMALL
bcc


@<TRIPOS>ATOM
      1 O55        -0.5600   -0.7110   -0.4680 o         1 77Z     -0.406100
      2 C51         0.1370    0.0430   -1.1310 c         1 77Z      0.502100
      3 N54        -0.4650    0.4970   -2.4290 nz        1 77Z     -0.755400
      4 C50         1.5150    0.5400   -0.7180 c3        1 77Z      0.068400
      5 O49         2.1660    1.3860   -1.6430 os        1 77Z     -0.300900
      6 C19         2.6140    0.7020   -2.7800 ca        1 77Z     -0.046900
      7 C18         3.6930   -0.2140   -2.7420 ca        1 77Z     -0.035000
      8 C20         1.9750    0.9830   -3.9710 ca        1 77Z     -0.030000
      9 C14         2.1660    0.1450   -5.0810 ca        1 77Z     -0.494500
     10 S15         0.8930    0.1600   -6.1730 sy        1 77Z      1.558200
     11 O21         0.8500    1.3200   -6.9370 o         1 77Z     -0.672800
     12 O22        -0.2450   -0.0220   -5.3160 o         1 77Z     -0.672800
     13 N16         1.2200   -1.1650   -7.0270 n7        1 77Z     -0.932100
     14 C13         3.2230   -0.7980   -5.0660 ca        1 77Z      0.336600
     15 C17         4.0200   -0.9210   -3.8740 ca        1 77Z     -0.184000
     16 N12         3.4470   -1.6000   -6.1480 nu        1 77Z     -0.781600
     17 C11         2.5890   -1.5380   -7.3420 c3        1 77Z      0.549700
     18 C9          2.6590   -2.8800   -8.1450 c3        1 77Z     -0.260700
     19 C8          4.1030   -3.1760   -8.5240 c         1 77Z      0.706500
     20 O24         4.8880   -3.5650   -7.6330 o         1 77Z     -0.638500
     21 C10         1.7020   -2.8300   -9.3190 c         1 77Z      0.601700
     22 O23         0.4960   -3.0260   -9.1200 o         1 77Z     -0.529100
     23 C4          2.2700   -2.5300  -10.6300 ca        1 77Z     -0.233600
     24 C5          1.4060   -2.1620  -11.6720 ca        1 77Z     -0.032000
     25 C6          1.9050   -1.8410  -12.9270 ca        1 77Z     -0.160000
     26 C3          3.6680   -2.6070  -10.8570 ca        1 77Z      0.114600
     27 C2          4.1580   -2.2620  -12.1380 ca        1 77Z     -0.179000
     28 C1          3.2820   -1.8870  -13.1500 ca        1 77Z     -0.053000
     29 N7          4.5360   -3.0360   -9.8340 n         1 77Z     -0.349000
     30 C33         5.9140   -3.3890  -10.1520 c3        1 77Z      0.079000
     31 C34         6.8890   -2.2120  -10.1290 c3        1 77Z     -0.097400
     32 C37         8.2670   -2.6430  -10.6150 c3        1 77Z     -0.065700
     33 C44         9.1060   -1.4190  -10.9210 c3        1 77Z     -0.093600
     34 C40         8.9690   -3.5160   -9.5960 c3        1 77Z     -0.093600
     35 HN54       -0.2420    1.4840   -2.5900 hn        1 77Z      0.483133
     36 HN5A       -0.0890   -0.0490   -3.2320 hn        1 77Z      0.483133
     37 H50         1.3850    1.1800    0.2050 h1        1 77Z      0.131700
     38 H50A        2.1300   -0.3730   -0.4810 h1        1 77Z      0.131700
     39 H18         4.2650   -0.3430   -1.8080 ha        1 77Z      0.165000
     40 H20         1.2840    1.8400   -4.0600 ha        1 77Z      0.152000
     41 HN16        0.5270   -1.8320   -7.2950 hn        1 77Z      0.493800
     42 H17         4.8840   -1.6060   -3.8680 ha        1 77Z      0.170000
     43 HN12        4.1270   -2.3330   -6.0980 hn        1 77Z      0.491800
     44 H11         3.0250   -0.7180   -8.0070 h2        1 77Z      0.093700
     45 H9          2.3300   -3.7300   -7.4740 hc        1 77Z      0.127700
     46 H5          0.3210   -2.1340  -11.4730 ha        1 77Z      0.163000
     47 H6          1.2200   -1.5520  -13.7390 ha        1 77Z      0.157000
     48 H2          5.2380   -2.2800  -12.3540 ha        1 77Z      0.156000
     49 H1          3.6860   -1.6250  -14.1420 ha        1 77Z      0.153000
     50 H33         6.2560   -4.1570   -9.3960 h1        1 77Z      0.078700
     51 H33A        5.9270   -3.8800  -11.1660 h1        1 77Z      0.078700
     52 H34         6.5110   -1.3830  -10.7840 hc        1 77Z      0.051200
     53 H34A        6.9690   -1.8080   -9.0860 hc        1 77Z      0.051200
     54 H37         8.1430   -3.2340  -11.5670 hc        1 77Z      0.048700
     55 H44        10.1190   -1.7270  -11.2780 hc        1 77Z      0.039700
     56 H44A        8.6240   -0.8000  -11.7150 hc        1 77Z      0.039700
     57 H44B        9.2300   -0.7900  -10.0070 hc        1 77Z      0.039700
     58 H40         8.3960   -4.4580   -9.4180 hc        1 77Z      0.039700
     59 H40A        9.0760   -2.9780   -8.6240 hc        1 77Z      0.039700
     60 H40B        9.9880   -3.7890   -9.9630 hc        1 77Z      0.039700
     61 H543       -1.4840    0.3700   -2.4220 hn        1 77Z      0.483133
@<TRIPOS>BOND
     1    1    2 2   
     2    2    3 1   
     3    2    4 1   
     4    3   35 1   
     5    3   36 1   
     6    3   61 1   
     7    4    5 1   
     8    4   37 1   
     9    4   38 1   
    10    5    6 1   
    11    6    7 ar  
    12    6    8 ar  
    13    7   15 ar  
    14    7   39 1   
    15    8    9 ar  
    16    8   40 1   
    17    9   10 1   
    18    9   14 ar  
    19   10   11 2   
    20   10   12 2   
    21   10   13 1   
    22   13   17 1   
    23   13   41 1   
    24   14   15 ar  
    25   14   16 1   
    26   15   42 1   
    27   16   17 1   
    28   16   43 1   
    29   17   18 1   
    30   17   44 1   
    31   18   19 1   
    32   18   21 1   
    33   18   45 1   
    34   19   20 2   
    35   19   29 1   
    36   21   22 2   
    37   21   23 1   
    38   23   24 ar  
    39   23   26 ar  
    40   24   25 ar  
    41   24   46 1   
    42   25   28 ar  
    43   25   47 1   
    44   26   27 ar  
    45   26   29 1   
    46   27   28 ar  
    47   27   48 1   
    48   28   49 1   
    49   29   30 1   
    50   30   31 1   
    51   30   50 1   
    52   30   51 1   
    53   31   32 1   
    54   31   52 1   
    55   31   53 1   
    56   32   33 1   
    57   32   34 1   
    58   32   54 1   
    59   33   55 1   
    60   33   56 1   
    61   33   57 1   
    62   34   58 1   
    63   34   59 1   
    64   34   60 1   
@<TRIPOS>SUBSTRUCTURE
     1 77Z         1 TEMP              0 ****  ****    0 ROOT
