@<TRIPOS>MOLECULE
780
   41    30     1     0     0
SMALL
bcc


@<TRIPOS>ATOM
      1 C1          2.0710    0.3260   -4.2670 c1        1 780     -0.215000
      2 C2          0.9300    1.0130   -4.6500 c1        1 780     -0.131250
      3 C3          0.0090    1.4130   -3.6950 c1        1 780     -0.131250
      4 C4          0.2320    1.1230   -2.3350 c1        1 780      0.004500
      5 C5          1.3560    0.4470   -1.9580 c1        1 780      0.004500
      6 C6          2.2910    0.0400   -2.9290 c1        1 780     -0.093000
      7 C7          3.1200   -0.0420   -5.2950 c2        1 780      0.352000
      8 N1          3.1730   -1.3620   -5.8120 n3        1 780     -0.350000
      9 N2          3.9770    0.8580   -5.7060 n2        1 780     -0.345000
     10 N3         -0.4880    1.3910   -1.2180 n1        1 780     -0.227500
     11 N4          1.3230    0.3010   -0.6100 n1        1 780     -0.227500
     12 C8          0.1840    0.8840   -0.1510 c2        1 780      0.202000
     13 C1'        -0.0710    0.9520    1.2100 c1        1 780     -0.308000
     14 C2'         0.4950    1.9630    1.9720 c1        1 780     -0.131250
     15 C3'         0.2360    2.0340    3.3320 c1        1 780     -0.131250
     16 C4'        -0.5890    1.0940    3.9300 c1        1 780     -0.086000
     17 C5'        -1.1550    0.0830    3.1680 c1        1 780     -0.089000
     18 C6'        -0.8960    0.0120    1.8080 c1        1 780      0.318000
     19 O6'        -1.5030   -0.9860    1.0290 o         1 780     -0.477000
     20 C1B        -1.9840   -0.8530    3.7650 c1        1 780     -0.089000
     21 C2B        -3.3220   -0.5600    3.9760 c1        1 780     -0.131250
     22 C3B        -4.1540   -1.4990    4.5660 c1        1 780     -0.131250
     23 C4B        -3.6470   -2.7330    4.9440 c1        1 780     -0.131250
     24 C5B        -2.3090   -3.0260    4.7340 c1        1 780     -0.131250
     25 C6B        -1.4770   -2.0870    4.1440 c1        1 780     -0.086000
     26 HC2         0.7750    1.2140   -5.5920 ha        1 780      0.127875
     27 HC3        -0.7950    1.8970   -3.9650 ha        1 780      0.127875
     28 HC6         3.0950   -0.4440   -2.6590 ha        1 780      0.139000
     29 HH11        2.6850   -2.0270   -5.4190 hn        1 780      0.261000
     30 HH12        3.7260   -1.5550   -6.5150 hn        1 780      0.261000
     31 HH21        3.9420    1.7100   -5.3710 DU        1 780      0.295000
     32 HH22        4.6110    0.6350   -6.3280 hn        1 780      0.246000
     33 HN3        -1.2850    1.8350   -1.1880 DU        1 780      0.295000
     34 HC2'        1.0750    2.6250    1.5500 ha        1 780      0.127875
     35 HC3'        0.6340    2.7450    3.8680 ha        1 780      0.127875
     36 HC4'       -0.7710    1.1430    4.8870 ha        1 780      0.120000
     37 H2B        -3.6790    0.3090    3.7100 ha        1 780      0.127875
     38 H3B        -5.0960   -1.2920    4.7140 ha        1 780      0.127875
     39 H4B        -4.2320   -3.3940    5.3600 ha        1 780      0.127875
     40 H5B        -1.9520   -3.8950    5.0000 ha        1 780      0.127875
     41 H6B        -0.5350   -2.2940    3.9960 ha        1 780      0.120000
@<TRIPOS>BOND
     1    1    6 1   
     2    1    7 1   
     3    2    3 1   
     4    2   26 1   
     5    3   27 1   
     6    4    5 1   
     7    6   28 1   
     8    7    8 1   
     9    7    9 1   
    10    8   29 1   
    11    8   30 1   
    12    9   32 1   
    13   10   12 1   
    14   11   12 1   
    15   12   13 1   
    16   13   18 1   
    17   14   15 1   
    18   14   34 1   
    19   15   35 1   
    20   16   17 1   
    21   16   36 1   
    22   18   19 1   
    23   20   25 1   
    24   21   22 1   
    25   21   37 1   
    26   22   38 1   
    27   23   24 1   
    28   23   39 1   
    29   24   40 1   
    30   25   41 1   
@<TRIPOS>SUBSTRUCTURE
     1 780         1 TEMP              0 ****  ****    0 ROOT
