@<TRIPOS>MOLECULE
780
   41    44     1     0     0
SMALL
bcc


@<TRIPOS>ATOM
      1 C1          4.8500    0.4660   -0.0220 ca        1 780     -0.293900
      2 C2          5.0610   -0.8320   -0.5330 ca        1 780     -0.105000
      3 C3          4.0060   -1.7160   -0.7150 ca        1 780     -0.151000
      4 C4          2.7210   -1.2890   -0.3730 ca        1 780      0.025000
      5 C5          2.4860    0.0620    0.1750 ca        1 780     -0.022000
      6 C6          3.5650    0.9200    0.3400 ca        1 780     -0.089000
      7 C7          5.9870    1.3820    0.1260 ce        1 780      0.530400
      8 N1          5.8120    2.7030   -0.1430 nh        1 780     -0.498100
      9 N2          7.1940    0.8930    0.5210 nh        1 780     -0.482200
     10 N3          1.4800   -1.8830   -0.4250 na        1 780     -0.276600
     11 N4          1.1320    0.2380    0.4470 nc        1 780     -0.306600
     12 C8          0.5130   -0.9240    0.0650 cc        1 780      0.326500
     13 C1'        -0.8750   -1.2460    0.0980 cd        1 780     -0.345200
     14 C2'        -1.2870   -2.5890    0.2660 cd        1 780     -0.031000
     15 C3'        -2.6100   -2.9290    0.3430 cc        1 780     -0.262000
     16 C4'        -3.6000   -1.9170    0.2560 cc        1 780     -0.047000
     17 C5'        -3.2720   -0.6000    0.0810 cd        1 780     -0.183400
     18 C6'        -1.8620   -0.1830   -0.0350 c         1 780      0.601500
     19 O6'        -1.5500    1.0040   -0.2780 o         1 780     -0.636100
     20 C1B        -4.3240    0.4100    0.0100 ca        1 780     -0.004800
     21 C2B        -5.5420    0.1190   -0.6270 ca        1 780     -0.120500
     22 C3B        -6.5640    1.0640   -0.6720 ca        1 780     -0.140500
     23 C4B        -6.3880    2.3170   -0.0860 ca        1 780     -0.148000
     24 C5B        -5.1790    2.6200    0.5400 ca        1 780     -0.140500
     25 C6B        -4.1540    1.6790    0.5870 ca        1 780     -0.120500
     26 HC2         6.0670   -1.1540   -0.8380 ha        1 780      0.119000
     27 HC3         4.1830   -2.7190   -1.1260 ha        1 780      0.144000
     28 HC6         3.3980    1.9150    0.7770 ha        1 780      0.146000
     29 HH11        4.9090    3.0080   -0.4420 hn        1 780      0.313450
     30 HH12        6.5180    3.3840    0.0050 hn        1 780      0.313450
     31 HH21        8.0080    1.4540    0.5930 hn        1 780      0.313450
     32 HH22        7.2620   -0.0780    0.7320 hn        1 780      0.313450
     33 HN3         1.2680   -2.7820   -0.7670 hn        1 780      0.310700
     34 HC2'       -0.5320   -3.3830    0.3760 ha        1 780      0.086000
     35 HC3'       -2.9230   -3.9700    0.4890 ha        1 780      0.115000
     36 HC4'       -4.6560   -2.2200    0.3480 ha        1 780      0.113000
     37 H2B        -5.6850   -0.8610   -1.1050 ha        1 780      0.140500
     38 H3B        -7.5110    0.8220   -1.1750 ha        1 780      0.118000
     39 H4B        -7.1950    3.0610   -0.1200 ha        1 780      0.117000
     40 H5B        -5.0310    3.6100    0.9960 ha        1 780      0.118000
     41 H6B        -3.1890    1.9290    1.0580 ha        1 780      0.140500
@<TRIPOS>BOND
     1    1    2 ar  
     2    1    6 ar  
     3    1    7 1   
     4    2    3 ar  
     5    2   26 1   
     6    3    4 ar  
     7    3   27 1   
     8    4    5 ar  
     9    4   10 2   
    10    5    6 ar  
    11    5   11 2   
    12    6   28 1   
    13    7    8 2   
    14    7    9 1   
    15    8   29 1   
    16    8   30 1   
    17    9   31 1   
    18    9   32 1   
    19   10   12 1   
    20   10   33 1   
    21   11   12 1   
    22   12   13 2   
    23   13   14 1   
    24   13   18 1   
    25   14   15 2   
    26   14   34 1   
    27   15   16 1   
    28   15   35 1   
    29   16   17 2   
    30   16   36 1   
    31   17   18 1   
    32   17   20 1   
    33   18   19 2   
    34   20   21 ar  
    35   20   25 ar  
    36   21   22 ar  
    37   21   37 1   
    38   22   23 ar  
    39   22   38 1   
    40   23   24 ar  
    41   23   39 1   
    42   24   25 ar  
    43   24   40 1   
    44   25   41 1   
@<TRIPOS>SUBSTRUCTURE
     1 780         1 TEMP              0 ****  ****    0 ROOT
