@<TRIPOS>MOLECULE
781
   29    30     1     0     0
SMALL
bcc


@<TRIPOS>ATOM
      1 O1         -0.0080   -0.7650    0.3890 o         1 781     -0.581100
      2 C7          1.0630   -0.1640    0.1990 c         1 781      0.665100
      3 C8          1.9840    0.2130    1.3510 c3        1 781     -0.153400
      4 C9          1.4110   -0.2340    2.6710 c3        1 781     -0.087100
      5 N           1.5100    0.2140   -1.0630 ns        1 781     -0.477100
      6 C6          0.8870    0.0090   -2.3040 ca        1 781      0.095600
      7 C5          1.5200    0.4840   -3.4550 ca        1 781     -0.208000
      8 C4          0.9400    0.3070   -4.7340 ca        1 781      0.022000
      9 C3          1.5850    0.7910   -5.9090 ca        1 781     -0.164000
     10 C2          1.0110    0.6120   -7.1430 ca        1 781     -0.081000
     11 C1         -0.2270   -0.0540   -7.2770 ca        1 781     -0.240000
     12 C          -0.8690   -0.5310   -6.1490 ca        1 781      0.154100
     13 O          -2.0760   -1.1880   -6.2000 oh        1 781     -0.498100
     14 C12        -0.3030   -0.3640   -4.8450 ca        1 781     -0.079000
     15 C11        -0.9350   -0.8410   -3.6700 ca        1 781     -0.070000
     16 C10        -0.3680   -0.6660   -2.4330 ca        1 781     -0.160000
     17 H1          2.9870   -0.2650    1.1900 hc        1 781      0.062700
     18 H2          2.1290    1.3260    1.3560 hc        1 781      0.062700
     19 H3          2.1020    0.0500    3.5010 hc        1 781      0.048367
     20 H4          1.2680   -1.3420    2.6800 hc        1 781      0.048367
     21 H5          0.4160    0.2410    2.8460 hc        1 781      0.048367
     22 H6          2.3830    0.6930   -1.1020 hn        1 781      0.313500
     23 H7          2.4860    1.0090   -3.4010 ha        1 781      0.130000
     24 H8          2.5490    1.3090   -5.8050 ha        1 781      0.132000
     25 H9          1.5090    0.9860   -8.0500 ha        1 781      0.131000
     26 H10        -0.6680   -0.1850   -8.2740 ha        1 781      0.133000
     27 H11        -2.3500   -1.2360   -7.1280 ho        1 781      0.421000
     28 H12        -1.9020   -1.3610   -3.7720 ha        1 781      0.153000
     29 H13        -0.8840   -1.0490   -1.5370 ha        1 781      0.176000
@<TRIPOS>BOND
     1    1    2 2   
     2    2    3 1   
     3    2    5 1   
     4    3    4 1   
     5    3   17 1   
     6    3   18 1   
     7    4   19 1   
     8    4   20 1   
     9    4   21 1   
    10    5    6 1   
    11    5   22 1   
    12    6    7 ar  
    13    6   16 ar  
    14    7    8 ar  
    15    7   23 1   
    16    8    9 ar  
    17    8   14 ar  
    18    9   10 ar  
    19    9   24 1   
    20   10   11 ar  
    21   10   25 1   
    22   11   12 ar  
    23   11   26 1   
    24   12   13 1   
    25   12   14 ar  
    26   13   27 1   
    27   14   15 ar  
    28   15   16 ar  
    29   15   28 1   
    30   16   29 1   
@<TRIPOS>SUBSTRUCTURE
     1 781         1 TEMP              0 ****  ****    0 ROOT
