@<TRIPOS>MOLECULE
781
   29    30     1     0     0
SMALL
bcc


@<TRIPOS>ATOM
      1 O1         -0.0050   -0.7820    0.3850 o         1 781     -0.581100
      2 C7          1.0580   -0.1650    0.1990 c         1 781      0.665100
      3 C8          1.9710    0.2210    1.3550 c3        1 781     -0.153400
      4 C9          1.4020   -0.2380    2.6720 c3        1 781     -0.087100
      5 N           1.5020    0.2220   -1.0610 n         1 781     -0.477100
      6 C6          0.8850    0.0130   -2.3030 ca        1 781      0.095600
      7 C5          1.5140    0.4970   -3.4530 ca        1 781     -0.208000
      8 C4          0.9400    0.3160   -4.7340 ca        1 781      0.022000
      9 C3          1.5810    0.8090   -5.9050 ca        1 781     -0.164000
     10 C2          1.0130    0.6260   -7.1410 ca        1 781     -0.081000
     11 C1         -0.2170   -0.0540   -7.2790 ca        1 781     -0.240000
     12 C          -0.8550   -0.5410   -6.1540 ca        1 781      0.154100
     13 O          -2.0550   -1.2130   -6.2090 oh        1 781     -0.498100
     14 C12        -0.2940   -0.3700   -4.8490 ca        1 781     -0.079000
     15 C11        -0.9240   -0.8570   -3.6760 ca        1 781     -0.070000
     16 C10        -0.3620   -0.6780   -2.4380 ca        1 781     -0.160000
     17 H1          2.9810   -0.2410    1.1930 hc        1 781      0.062700
     18 H2          2.1000    1.3360    1.3630 hc        1 781      0.062700
     19 H3          1.2760   -1.3480    2.6770 hc        1 781      0.048367
     20 H4          2.0870    0.0540    3.5040 hc        1 781      0.048367
     21 H5          0.3990    0.2210    2.8460 hc        1 781      0.048367
     22 H6          2.3680    0.7140   -1.0970 hn        1 781      0.313500
     23 H7          2.4740    1.0330   -3.3950 ha        1 781      0.130000
     24 H8          2.5390    1.3390   -5.7980 ha        1 781      0.132000
     25 H9          1.5080    1.0080   -8.0470 ha        1 781      0.131000
     26 H10        -0.6540   -0.1900   -8.2780 ha        1 781      0.133000
     27 H11        -2.3260   -1.2630   -7.1380 ho        1 781      0.421000
     28 H12        -1.8840   -1.3890   -3.7810 ha        1 781      0.153000
     29 H13        -0.8760   -1.0680   -1.5430 ha        1 781      0.176000
@<TRIPOS>BOND
     1    1    2 2   
     2    2    3 1   
     3    2    5 1   
     4    3    4 1   
     5    3   17 1   
     6    3   18 1   
     7    4   19 1   
     8    4   20 1   
     9    4   21 1   
    10    5    6 1   
    11    5   22 1   
    12    6    7 ar  
    13    6   16 ar  
    14    7    8 ar  
    15    7   23 1   
    16    8    9 ar  
    17    8   14 ar  
    18    9   10 ar  
    19    9   24 1   
    20   10   11 ar  
    21   10   25 1   
    22   11   12 ar  
    23   11   26 1   
    24   12   13 1   
    25   12   14 ar  
    26   13   27 1   
    27   14   15 ar  
    28   15   16 ar  
    29   15   28 1   
    30   16   29 1   
@<TRIPOS>SUBSTRUCTURE
     1 781         1 TEMP              0 ****  ****    0 ROOT
