@<TRIPOS>MOLECULE
783
   46    34     1     0     0
SMALL
bcc


@<TRIPOS>ATOM
      1 C1         -0.2790    0.7480   -5.0260 c1        1 783     -0.223000
      2 C2         -1.1580   -0.3240   -4.9610 c1        1 783     -0.130667
      3 C3         -1.5590   -0.8200   -3.7290 c1        1 783     -0.130667
      4 C4         -1.0750   -0.2360   -2.5450 c1        1 783      0.003500
      5 C5         -0.2060    0.8240   -2.6100 c1        1 783      0.003500
      6 C6          0.1990    1.3250   -3.8590 c1        1 783     -0.081000
      7 C7          0.1520    1.3220   -6.3590 c2        1 783      0.353000
      8 N1          1.2620    0.7640   -7.0460 n3        1 783     -0.351000
      9 N2         -0.4990    2.3330   -6.8780 n2        1 783     -0.349000
     10 N3         -1.3030   -0.5210   -1.2110 n1        1 783     -0.179000
     11 CN4         0.1050    1.1960   -1.3200 c1        1 783     -0.316000
     12 C8         -0.5770    0.3600   -0.4590 c2        1 783      0.186000
     13 C1'        -0.5180    0.3530    0.9270 c1        1 783     -0.308000
     14 C2'        -1.4220    1.1040    1.6630 c1        1 783     -0.017000
     15 C3'        -1.3720    1.0860    3.0480 c1        1 783     -0.106000
     16 O3'        -2.2610    1.8800    3.7930 o         1 783     -0.225000
     17 C3X        -3.3980    1.1850    4.2530 c3        1 783     -0.073000
     18 C4'        -0.4180    0.3170    3.6970 c2        1 783     -0.047000
     19 C5'         0.4850   -0.4330    2.9620 c1        1 783     -0.177000
     20 C6'         0.4350   -0.4150    1.5770 c1        1 783      0.314000
     21 O6'         1.3700   -1.1520    0.8310 o         1 783     -0.478000
     22 C1B         1.4350   -1.2060    3.6110 c1        1 783      0.006000
     23 C2B         1.1460   -2.5190    3.9500 c1        1 783     -0.130667
     24 C3B         2.0860   -3.2830    4.6240 c1        1 783     -0.130667
     25 C4B         3.3140   -2.7350    4.9590 c1        1 783     -0.130667
     26 C5B         3.6020   -1.4220    4.6200 c1        1 783     -0.130667
     27 C6B         2.6630   -0.6580    3.9460 c1        1 783     -0.138000
     28 HC2        -1.4950   -0.7300   -5.7830 ha        1 783      0.129333
     29 HC3        -2.1770   -1.5730   -3.6840 ha        1 783      0.129333
     30 HC6         0.8170    2.0790   -3.9040 ha        1 783      0.126000
     31 HH11        1.5670    1.1540   -7.8140 hn        1 783      0.260500
     32 HH12        1.6500   -0.0050   -6.7390 hn        1 783      0.260500
     33 HH21       -1.2150    2.6930   -6.4350 DU        1 783      0.247000
     34 HH22       -0.2380    2.6800   -7.6850 hn        1 783      0.246000
     35 HN3        -1.8430   -1.1820   -0.8890 DU        1 783      0.247000
     36 HCN4        0.7020    1.9240   -1.0610 DU        1 783      0.247000
     37 HC2'       -2.0760    1.6640    1.2060 ha        1 783      0.120000
     38 H31'       -3.1200    0.4680    4.8610 h1        1 783      0.066333
     39 H32'       -3.8770    0.7990    3.4890 h1        1 783      0.066333
     40 H33'       -3.9900    1.8070    4.7300 h1        1 783      0.066333
     41 HC4'       -0.3830    0.3040    4.6730 ha        1 783      0.127000
     42 H2B         0.2800   -2.9050    3.7140 ha        1 783      0.129333
     43 H3B         1.8820   -4.2080    4.8630 ha        1 783      0.129333
     44 H4B         3.9750   -3.2730    5.4340 ha        1 783      0.129333
     45 H5B         4.4670   -1.0360    4.8560 ha        1 783      0.129333
     46 H6B         2.8660    0.2670    3.7080 ha        1 783      0.128000
@<TRIPOS>BOND
     1    1    6 1   
     2    1    7 1   
     3    2    3 1   
     4    2   28 1   
     5    3   29 1   
     6    4    5 1   
     7    6   30 1   
     8    7    8 1   
     9    7    9 1   
    10    8   31 1   
    11    8   32 1   
    12    9   34 1   
    13   10   12 1   
    14   11   12 1   
    15   12   13 1   
    16   13   20 1   
    17   14   15 1   
    18   14   37 1   
    19   15   18 1   
    20   16   17 1   
    21   17   38 1   
    22   17   39 1   
    23   17   40 1   
    24   18   19 1   
    25   18   41 1   
    26   20   21 1   
    27   22   27 1   
    28   23   24 1   
    29   23   42 1   
    30   24   43 1   
    31   25   26 1   
    32   25   44 1   
    33   26   45 1   
    34   27   46 1   
@<TRIPOS>SUBSTRUCTURE
     1 783         1 TEMP              0 ****  ****    0 ROOT
