@<TRIPOS>MOLECULE
783
   46    49     1     0     0
SMALL
bcc


@<TRIPOS>ATOM
      1 C1         -5.2680   -0.2150   -0.0220 ca        1 783     -0.306900
      2 C2         -4.8740   -1.5620   -0.2050 ca        1 783     -0.107000
      3 C3         -3.5400   -1.9270   -0.2190 ca        1 783     -0.146000
      4 C4         -2.5690   -0.9260   -0.0570 ca        1 783      0.050000
      5 C5         -2.9660    0.4790    0.1290 ca        1 783     -0.043000
      6 C6         -4.3070    0.8050    0.1470 ca        1 783     -0.081000
      7 C7         -6.6880    0.1270   -0.0030 ce        1 783      0.530400
      8 N1         -7.5540   -0.5490   -0.8090 nh        1 783     -0.504600
      9 N2         -7.1280    1.1170    0.8220 nh        1 783     -0.488700
     10 N3         -1.1980   -0.9840   -0.0360 na        1 783     -0.201600
     11 CN4        -1.7560    1.2260    0.2580 cc        1 783     -0.316000
     12 C8         -0.6700    0.3160    0.1580 cc        1 783      0.158900
     13 C1'         0.7270    0.5890    0.2280 cd        1 783     -0.326200
     14 C2'         1.1320    1.9310    0.3970 cd        1 783     -0.017000
     15 C3'         2.4670    2.2570    0.4850 cc        1 783     -0.061900
     16 O3'         2.8370    3.5710    0.7670 os        1 783     -0.339900
     17 C3X         3.3300    4.2640   -0.3740 c3        1 783      0.117700
     18 C4'         3.4670    1.2560    0.3890 cc        1 783     -0.047000
     19 C5'         3.1270   -0.0610    0.2140 cd        1 783     -0.184400
     20 C6'         1.7200   -0.4680    0.1380 c         1 783      0.591500
     21 O6'         1.4020   -1.6820   -0.0020 o         1 783     -0.717100
     22 C1B         4.1800   -1.0670    0.1010 ca        1 783     -0.003800
     23 C2B         5.3590   -0.7740   -0.6050 ca        1 783     -0.120000
     24 C3B         6.3840   -1.7130   -0.6960 ca        1 783     -0.140000
     25 C4B         6.2500   -2.9600   -0.0870 ca        1 783     -0.146000
     26 C5B         5.0800   -3.2640    0.6090 ca        1 783     -0.140000
     27 C6B         4.0520   -2.3290    0.7020 ca        1 783     -0.120000
     28 HC2        -5.6310   -2.3540   -0.2990 ha        1 783      0.117000
     29 HC3        -3.2470   -2.9790   -0.3470 ha        1 783      0.149000
     30 HC6        -4.6000    1.8600    0.2530 ha        1 783      0.126000
     31 HH11       -8.5350   -0.4030   -0.7920 hn        1 783      0.310950
     32 HH12       -7.1840   -1.2460   -1.4170 hn        1 783      0.310950
     33 HH21       -6.4630    1.5700    1.4110 hn        1 783      0.310950
     34 HH22       -8.0650    1.4420    0.8260 hn        1 783      0.310950
     35 HN3        -0.6190   -1.7950   -0.1290 hn        1 783      0.353700
     36 HCN4       -1.6800    2.2960    0.4100 ha        1 783      0.160000
     37 HC2'        0.3760    2.7280    0.4730 ha        1 783      0.120000
     38 H31'        4.2200    3.7400   -0.8000 h1        1 783      0.026367
     39 H32'        2.5340    4.3540   -1.1530 h1        1 783      0.026367
     40 H33'        3.6150    5.2720    0.0160 h1        1 783      0.026367
     41 HC4'        4.5220    1.5660    0.4690 ha        1 783      0.127000
     42 H2B         5.4690    0.2030   -1.0970 ha        1 783      0.139000
     43 H3B         7.3000   -1.4690   -1.2520 ha        1 783      0.119000
     44 H4B         7.0590   -3.6990   -0.1580 ha        1 783      0.118000
     45 H5B         4.9650   -4.2480    1.0850 ha        1 783      0.119000
     46 H6B         3.1190   -2.5790    1.2320 ha        1 783      0.139000
@<TRIPOS>BOND
     1    1    2 ar  
     2    1    6 ar  
     3    1    7 1   
     4    2    3 ar  
     5    2   28 1   
     6    3    4 ar  
     7    3   29 1   
     8    4    5 ar  
     9    4   10 2   
    10    5    6 ar  
    11    5   11 2   
    12    6   30 1   
    13    7    8 2   
    14    7    9 1   
    15    8   31 1   
    16    8   32 1   
    17    9   33 1   
    18    9   34 1   
    19   10   12 1   
    20   10   35 1   
    21   11   12 1   
    22   11   36 1   
    23   12   13 2   
    24   13   14 1   
    25   13   20 1   
    26   14   15 2   
    27   14   37 1   
    28   15   16 1   
    29   15   18 1   
    30   16   17 1   
    31   17   38 1   
    32   17   39 1   
    33   17   40 1   
    34   18   19 2   
    35   18   41 1   
    36   19   20 1   
    37   19   22 1   
    38   20   21 2   
    39   22   23 ar  
    40   22   27 ar  
    41   23   24 ar  
    42   23   42 1   
    43   24   25 ar  
    44   24   43 1   
    45   25   26 ar  
    46   25   44 1   
    47   26   27 ar  
    48   26   45 1   
    49   27   46 1   
@<TRIPOS>SUBSTRUCTURE
     1 783         1 TEMP              0 ****  ****    0 ROOT
