@<TRIPOS>MOLECULE
784
   62    65     1     0     0
SMALL
bcc


@<TRIPOS>ATOM
      1 O18         0.6280   -0.9640    0.3140 o         1 784     -0.581500
      2 C11         1.7990   -0.5760    0.3620 c         1 784      0.712500
      3 N12         2.5110   -0.4010    1.5730 n         1 784     -0.527400
      4 C19         1.9240   -0.5750    2.8710 c3        1 784      0.111000
      5 C21         1.3730   -1.9910    3.1110 c3        1 784     -0.132400
      6 C23         0.5190   -1.9790    4.3710 c3        1 784      0.119800
      7 N29        -0.3500   -3.1970    4.5630 n4        1 784     -0.603800
      8 C32         0.4550   -4.4440    4.4150 c3        1 784      0.087433
      9 C31        -1.4660   -3.2030    3.5690 c3        1 784      0.087433
     10 C30        -0.9320   -3.1500    5.9410 c3        1 784      0.087433
     11 C5          2.7120   -0.2340   -0.8090 c3        1 784     -0.144700
     12 C2          4.0890    0.0860   -0.1670 c3        1 784     -0.139700
     13 C6          3.8390    0.0290    1.3390 c         1 784      0.721500
     14 O13         4.6440    0.2540    2.2480 o         1 784     -0.588500
     15 C7          2.2590    1.0580   -1.5100 c3        1 784      0.164500
     16 C14         2.0240    0.8850   -3.0240 c3        1 784     -0.094400
     17 C15         2.7820    2.0240   -3.6950 c3        1 784     -0.103400
     18 C8          3.4790    2.8030   -2.5680 c3        1 784      0.141800
     19 N3          3.2920    2.1020   -1.2930 n3        1 784     -0.699600
     20 C1          4.5100    1.4450   -0.7760 c3        1 784      0.213800
     21 C4          5.3090    2.3260    0.1470 ca        1 784     -0.020300
     22 C10         6.7020    2.1550    0.1780 ca        1 784     -0.095500
     23 C17         7.5020    2.9920    0.9500 ca        1 784     -0.093000
     24 C20         6.9120    4.0170    1.6990 ca        1 784     -0.257900
     25 C22         7.7490    4.9690    2.4570 ce        1 784      0.589800
     26 N25         7.9120    6.2300    2.3490 n2        1 784     -0.705100
     27 N24         8.5310    4.2850    3.5500 nz        1 784     -0.824600
     28 C16         5.5230    4.1880    1.6850 ca        1 784     -0.093000
     29 C9          4.7260    3.3430    0.9120 ca        1 784     -0.095500
     30 H191        2.7070   -0.3400    3.6480 h1        1 784      0.073200
     31 H192        1.0750    0.1630    2.9750 h1        1 784      0.073200
     32 H211        2.2230   -2.7130    3.2250 hc        1 784      0.082200
     33 H212        0.7670   -2.3070    2.2180 hc        1 784      0.082200
     34 H231        1.1920   -1.9030    5.2740 hx        1 784      0.098700
     35 H232       -0.1710   -1.0860    4.3610 hx        1 784      0.098700
     36 H321        0.8060   -4.5400    3.3530 hx        1 784      0.104589
     37 H322       -0.1820   -5.3310    4.6780 hx        1 784      0.104589
     38 H323        1.3400   -4.3990    5.1040 hx        1 784      0.104589
     39 H311       -1.0500   -3.2290    2.5270 hx        1 784      0.104589
     40 H312       -2.1050   -4.1110    3.7370 hx        1 784      0.104589
     41 H313       -2.0870   -2.2770    3.7010 hx        1 784      0.104589
     42 H301       -0.1060   -3.2080    6.6990 hx        1 784      0.104589
     43 H302       -1.6280   -4.0210    6.0800 hx        1 784      0.104589
     44 H303       -1.5010   -2.1920    6.0720 hx        1 784      0.104589
     45 H5          2.7560   -1.1020   -1.5130 hc        1 784      0.118700
     46 H2          4.8610   -0.6900   -0.4090 hc        1 784      0.109700
     47 H7          1.3120    1.4430   -1.0330 h1        1 784      0.092700
     48 H141        2.3930   -0.1060   -3.3850 hc        1 784      0.065700
     49 H142        0.9290    0.9400   -3.2460 hc        1 784      0.065700
     50 H151        2.0860    2.6960   -4.2560 hc        1 784      0.068200
     51 H152        3.5320    1.6290   -4.4240 hc        1 784      0.068200
     52 H8C1        4.5640    2.9640   -2.8060 h1        1 784      0.064700
     53 H8C2        2.9990    3.8130   -2.4420 h1        1 784      0.064700
     54 H1          5.2060    1.1820   -1.6390 h1        1 784      0.064700
     55 H10         7.1740    1.3590   -0.4210 ha        1 784      0.168000
     56 H17         8.5950    2.8600    0.9320 ha        1 784      0.145500
     57 H25         7.4200    6.7210    1.6290 hn        1 784      0.493400
     58 H241        7.8670    3.9110    4.2350 hn        1 784      0.470800
     59 H242        9.0570    3.5110    3.1310 hn        1 784      0.470800
     60 H16         5.0520    4.9930    2.2720 ha        1 784      0.145500
     61 H9          3.6340    3.4980    0.8980 ha        1 784      0.168000
     62 H243        9.1810    4.9290    4.0210 hn        1 784      0.470800
@<TRIPOS>BOND
     1    1    2 2   
     2    2    3 1   
     3    2   11 1   
     4    3    4 1   
     5    3   13 1   
     6    4    5 1   
     7    4   30 1   
     8    4   31 1   
     9    5    6 1   
    10    5   32 1   
    11    5   33 1   
    12    6    7 1   
    13    6   34 1   
    14    6   35 1   
    15    7    8 1   
    16    7    9 1   
    17    7   10 1   
    18    8   36 1   
    19    8   37 1   
    20    8   38 1   
    21    9   39 1   
    22    9   40 1   
    23    9   41 1   
    24   10   42 1   
    25   10   43 1   
    26   10   44 1   
    27   11   12 1   
    28   11   15 1   
    29   11   45 1   
    30   12   13 1   
    31   12   20 1   
    32   12   46 1   
    33   13   14 2   
    34   15   16 1   
    35   15   19 1   
    36   15   47 1   
    37   16   17 1   
    38   16   48 1   
    39   16   49 1   
    40   17   18 1   
    41   17   50 1   
    42   17   51 1   
    43   18   19 1   
    44   18   52 1   
    45   18   53 1   
    46   19   20 1   
    47   20   21 1   
    48   20   54 1   
    49   21   22 ar  
    50   21   29 ar  
    51   22   23 ar  
    52   22   55 1   
    53   23   24 ar  
    54   23   56 1   
    55   24   25 1   
    56   24   28 ar  
    57   25   26 2   
    58   25   27 1   
    59   26   57 1   
    60   27   58 1   
    61   27   59 1   
    62   27   62 1   
    63   28   29 ar  
    64   28   60 1   
    65   29   61 1   
@<TRIPOS>SUBSTRUCTURE
     1 784         1 TEMP              0 ****  ****    0 ROOT
