@<TRIPOS>MOLECULE
784
   62    65     1     0     0
SMALL
bcc


@<TRIPOS>ATOM
      1 O18         0.6360   -0.9730    0.3090 o         1 784     -0.581500
      2 C11         1.8060   -0.5870    0.3630 c         1 784      0.712500
      3 N12         2.5090   -0.4000    1.5780 n         1 784     -0.527400
      4 C19         1.9100   -0.5600    2.8720 c3        1 784      0.111000
      5 C21         1.3550   -1.9720    3.1230 c3        1 784     -0.132400
      6 C23         0.4900   -1.9440    4.3750 c3        1 784      0.119800
      7 N29        -0.3840   -3.1590    4.5720 n4        1 784     -0.603800
      8 C32         0.4210   -4.4090    4.4460 c3        1 784      0.087433
      9 C31        -1.4900   -3.1740    3.5680 c3        1 784      0.087433
     10 C30        -0.9780   -3.0960    5.9440 c3        1 784      0.087433
     11 C5          2.7300   -0.2590   -0.8040 c3        1 784     -0.144700
     12 C2          4.1020    0.0650   -0.1540 c3        1 784     -0.139700
     13 C6          3.8390    0.0250    1.3510 c         1 784      0.721500
     14 O13         4.6370    0.2580    2.2640 o         1 784     -0.588500
     15 C7          2.2850    1.0270   -1.5220 c3        1 784      0.164500
     16 C14         2.0620    0.8390   -3.0360 c3        1 784     -0.094400
     17 C15         2.8280    1.9690   -3.7130 c3        1 784     -0.103400
     18 C8          3.5170    2.7580   -2.5880 c3        1 784      0.141800
     19 N3          3.3190    2.0710   -1.3070 n3        1 784     -0.699600
     20 C1          4.5300    1.4170   -0.7740 c3        1 784      0.213800
     21 C4          5.3230    2.3070    0.1470 ca        1 784     -0.020300
     22 C10         6.7160    2.1330    0.1920 ca        1 784     -0.095500
     23 C17         7.5110    2.9770    0.9610 ca        1 784     -0.093000
     24 C20         6.9160    4.0110    1.6950 ca        1 784     -0.257900
     25 C22         7.7490    4.9690    2.4490 ce        1 784      0.589800
     26 N25         7.9150    6.2280    2.3300 n2        1 784     -0.705100
     27 N24         8.5210    4.2950    3.5560 n4        1 784     -0.824600
     28 C16         5.5280    4.1840    1.6680 ca        1 784     -0.093000
     29 C9          4.7370    3.3330    0.8970 ca        1 784     -0.095500
     30 H191        1.0620    0.1810    2.9620 h1        1 784      0.073200
     31 H192        2.6870   -0.3180    3.6540 h1        1 784      0.073200
     32 H211        0.7560   -2.2960    2.2280 hc        1 784      0.082200
     33 H212        2.2020   -2.6940    3.2530 hc        1 784      0.082200
     34 H231       -0.1990   -1.0510    4.3490 hx        1 784      0.098700
     35 H232        1.1540   -1.8600    5.2840 hx        1 784      0.098700
     36 H321        0.7820   -4.5180    3.3890 hx        1 784      0.104589
     37 H322        1.3000   -4.3580    5.1430 hx        1 784      0.104589
     38 H323       -0.2200   -5.2920    4.7120 hx        1 784      0.104589
     39 H311       -2.1320   -4.0800    3.7410 hx        1 784      0.104589
     40 H312       -1.0640   -3.2130    2.5300 hx        1 784      0.104589
     41 H313       -2.1110   -2.2460    3.6840 hx        1 784      0.104589
     42 H301       -0.1590   -3.1470    6.7100 hx        1 784      0.104589
     43 H302       -1.6760   -3.9640    6.0860 hx        1 784      0.104589
     44 H303       -1.5470   -2.1350    6.0600 hx        1 784      0.104589
     45 H5          2.7780   -1.1340   -1.4980 hc        1 784      0.118700
     46 H2          4.8750   -0.7140   -0.3810 hc        1 784      0.109700
     47 H7          1.3350    1.4190   -1.0580 h1        1 784      0.092700
     48 H141        2.4330   -0.1570   -3.3840 hc        1 784      0.065700
     49 H142        0.9700    0.8930   -3.2680 hc        1 784      0.065700
     50 H151        2.1380    2.6360   -4.2860 hc        1 784      0.068200
     51 H152        3.5830    1.5660   -4.4310 hc        1 784      0.068200
     52 H8C1        4.6050    2.9150   -2.8180 h1        1 784      0.064700
     53 H8C2        3.0380    3.7700   -2.4770 h1        1 784      0.064700
     54 H1          5.2330    1.1440   -1.6280 h1        1 784      0.064700
     55 H10         7.1920    1.3300   -0.3960 ha        1 784      0.168000
     56 H17         8.6040    2.8430    0.9540 ha        1 784      0.145500
     57 H25         7.4300    6.7130    1.6020 hn        1 784      0.493400
     58 H241        7.8510    3.9280    4.2390 hn        1 784      0.470800
     59 H242        9.1690    4.9420    4.0260 hn        1 784      0.470800
     60 H16         5.0540    4.9960    2.2420 ha        1 784      0.145500
     61 H9          3.6450    3.4900    0.8730 ha        1 784      0.168000
     62 H243        9.0490    3.5160    3.1490 hn        1 784      0.470800
@<TRIPOS>BOND
     1    1    2 2   
     2    2    3 1   
     3    2   11 1   
     4    3    4 1   
     5    3   13 1   
     6    4    5 1   
     7    4   30 1   
     8    4   31 1   
     9    5    6 1   
    10    5   32 1   
    11    5   33 1   
    12    6    7 1   
    13    6   34 1   
    14    6   35 1   
    15    7    8 1   
    16    7    9 1   
    17    7   10 1   
    18    8   36 1   
    19    8   37 1   
    20    8   38 1   
    21    9   39 1   
    22    9   40 1   
    23    9   41 1   
    24   10   42 1   
    25   10   43 1   
    26   10   44 1   
    27   11   12 1   
    28   11   15 1   
    29   11   45 1   
    30   12   13 1   
    31   12   20 1   
    32   12   46 1   
    33   13   14 2   
    34   15   16 1   
    35   15   19 1   
    36   15   47 1   
    37   16   17 1   
    38   16   48 1   
    39   16   49 1   
    40   17   18 1   
    41   17   50 1   
    42   17   51 1   
    43   18   19 1   
    44   18   52 1   
    45   18   53 1   
    46   19   20 1   
    47   20   21 1   
    48   20   54 1   
    49   21   22 ar  
    50   21   29 ar  
    51   22   23 ar  
    52   22   55 1   
    53   23   24 ar  
    54   23   56 1   
    55   24   25 1   
    56   24   28 ar  
    57   25   26 2   
    58   25   27 1   
    59   26   57 1   
    60   27   58 1   
    61   27   59 1   
    62   27   62 1   
    63   28   29 ar  
    64   28   60 1   
    65   29   61 1   
@<TRIPOS>SUBSTRUCTURE
     1 784         1 TEMP              0 ****  ****    0 ROOT
