@<TRIPOS>MOLECULE
784
   62    65     1     0     0
SMALL
bcc


@<TRIPOS>ATOM
      1 O18         0.6200   -0.9490    0.3130 o         1 784     -0.581500
      2 C11         1.7940   -0.5720    0.3640 c         1 784      0.712500
      3 N12         2.5020   -0.3960    1.5770 n         1 784     -0.527400
      4 C19         1.9080   -0.5560    2.8730 c3        1 784      0.111000
      5 C21         1.3440   -1.9660    3.1200 c3        1 784     -0.132400
      6 C23         0.4840   -1.9370    4.3760 c3        1 784      0.119800
      7 N29        -0.3970   -3.1470    4.5710 n4        1 784     -0.603800
      8 C32         0.4000   -4.4020    4.4380 c3        1 784      0.087433
      9 C31        -1.5070   -3.1510    3.5710 c3        1 784      0.087433
     10 C30        -0.9860   -3.0850    5.9460 c3        1 784      0.087433
     11 C5          2.7150   -0.2460   -0.8050 c3        1 784     -0.144700
     12 C2          4.0920    0.0660   -0.1600 c3        1 784     -0.139700
     13 C6          3.8360    0.0200    1.3460 c         1 784      0.721500
     14 O13         4.6390    0.2440    2.2560 o         1 784     -0.588500
     15 C7          2.2770    1.0470   -1.5170 c3        1 784      0.164500
     16 C14         2.0460    0.8670   -3.0300 c3        1 784     -0.094400
     17 C15         2.8170    1.9940   -3.7050 c3        1 784     -0.103400
     18 C8          3.5170    2.7730   -2.5790 c3        1 784      0.141800
     19 N3          3.3180    2.0820   -1.3010 n3        1 784     -0.699600
     20 C1          4.5280    1.4170   -0.7760 c3        1 784      0.213800
     21 C4          5.3310    2.2970    0.1450 ca        1 784     -0.020300
     22 C10         6.7230    2.1120    0.1830 ca        1 784     -0.095500
     23 C17         7.5280    2.9460    0.9520 ca        1 784     -0.093000
     24 C20         6.9440    3.9820    1.6930 ca        1 784     -0.257900
     25 C22         7.7870    4.9300    2.4480 ce        1 784      0.589800
     26 N25         7.9620    6.1890    2.3340 n2        1 784     -0.705100
     27 N24         8.5590    4.2460    3.5490 n4        1 784     -0.824600
     28 C16         5.5570    4.1660    1.6730 ca        1 784     -0.093000
     29 C9          4.7550    3.3240    0.9020 ca        1 784     -0.095500
     30 H191        2.6910   -0.3230    3.6520 h1        1 784      0.073200
     31 H192        1.0660    0.1900    2.9690 h1        1 784      0.073200
     32 H211        2.1870   -2.6950    3.2440 hc        1 784      0.082200
     33 H212        0.7400   -2.2820    2.2260 hc        1 784      0.082200
     34 H231       -0.1990   -1.0390    4.3550 hx        1 784      0.098700
     35 H232        1.1520   -1.8610    5.2820 hx        1 784      0.098700
     36 H321       -0.2460   -5.2820    4.7030 hx        1 784      0.104589
     37 H322        0.7560   -4.5090    3.3780 hx        1 784      0.104589
     38 H323        1.2800   -4.3590    5.1310 hx        1 784      0.104589
     39 H311       -1.0850   -3.1890    2.5320 hx        1 784      0.104589
     40 H312       -2.1210   -2.2190    3.6920 hx        1 784      0.104589
     41 H313       -2.1540   -4.0530    3.7430 hx        1 784      0.104589
     42 H301       -1.5480   -2.1210    6.0670 hx        1 784      0.104589
     43 H302       -1.6890   -3.9490    6.0870 hx        1 784      0.104589
     44 H303       -0.1640   -3.1440    6.7080 hx        1 784      0.104589
     45 H5          2.7540   -1.1180   -1.5040 hc        1 784      0.118700
     46 H2          4.8580   -0.7190   -0.3940 hc        1 784      0.109700
     47 H7          1.3310    1.4430   -1.0460 h1        1 784      0.092700
     48 H141        0.9530    0.9300   -3.2570 hc        1 784      0.065700
     49 H142        2.4080   -0.1300   -3.3830 hc        1 784      0.065700
     50 H151        2.1290    2.6690   -4.2720 hc        1 784      0.068200
     51 H152        3.5660    1.5890   -4.4290 hc        1 784      0.068200
     52 H8C1        3.0450    3.7880   -2.4620 h1        1 784      0.064700
     53 H8C2        4.6040    2.9230   -2.8140 h1        1 784      0.064700
     54 H1          5.2250    1.1430   -1.6350 h1        1 784      0.064700
     55 H10         7.1900    1.3080   -0.4100 ha        1 784      0.168000
     56 H17         8.6190    2.8050    0.9400 ha        1 784      0.145500
     57 H25         7.4770    6.6800    1.6100 hn        1 784      0.493400
     58 H241        7.8890    3.8810    4.2330 hn        1 784      0.470800
     59 H242        9.0790    3.4640    3.1360 hn        1 784      0.470800
     60 H16         5.0910    4.9790    2.2530 ha        1 784      0.145500
     61 H9          3.6650    3.4890    0.8830 ha        1 784      0.168000
     62 H243        9.2130    4.8860    4.0180 hn        1 784      0.470800
@<TRIPOS>BOND
     1    1    2 2   
     2    2    3 1   
     3    2   11 1   
     4    3    4 1   
     5    3   13 1   
     6    4    5 1   
     7    4   30 1   
     8    4   31 1   
     9    5    6 1   
    10    5   32 1   
    11    5   33 1   
    12    6    7 1   
    13    6   34 1   
    14    6   35 1   
    15    7    8 1   
    16    7    9 1   
    17    7   10 1   
    18    8   36 1   
    19    8   37 1   
    20    8   38 1   
    21    9   39 1   
    22    9   40 1   
    23    9   41 1   
    24   10   42 1   
    25   10   43 1   
    26   10   44 1   
    27   11   12 1   
    28   11   15 1   
    29   11   45 1   
    30   12   13 1   
    31   12   20 1   
    32   12   46 1   
    33   13   14 2   
    34   15   16 1   
    35   15   19 1   
    36   15   47 1   
    37   16   17 1   
    38   16   48 1   
    39   16   49 1   
    40   17   18 1   
    41   17   50 1   
    42   17   51 1   
    43   18   19 1   
    44   18   52 1   
    45   18   53 1   
    46   19   20 1   
    47   20   21 1   
    48   20   54 1   
    49   21   22 ar  
    50   21   29 ar  
    51   22   23 ar  
    52   22   55 1   
    53   23   24 ar  
    54   23   56 1   
    55   24   25 1   
    56   24   28 ar  
    57   25   26 2   
    58   25   27 1   
    59   26   57 1   
    60   27   58 1   
    61   27   59 1   
    62   27   62 1   
    63   28   29 ar  
    64   28   60 1   
    65   29   61 1   
@<TRIPOS>SUBSTRUCTURE
     1 784         1 TEMP              0 ****  ****    0 ROOT
