@<TRIPOS>MOLECULE
784
   61    64     1     0     0
SMALL
bcc


@<TRIPOS>ATOM
      1 O18         1.2440    3.3020   -2.1260 o         1 784     -0.552500
      2 C11         0.9300    2.7780   -1.0580 c         1 784      0.712500
      3 N12         1.5380    1.5890   -0.5660 n         1 784     -0.529400
      4 C19         2.5390    0.8480   -1.2760 c3        1 784      0.098000
      5 C21         3.8360    0.6100   -0.4900 c3        1 784     -0.124400
      6 C23         4.4580   -0.7470   -0.7790 c3        1 784      0.124800
      7 N29         4.0150   -1.9080    0.0800 n4        1 784     -0.598800
      8 C32         2.6010   -2.2880   -0.2100 c3        1 784      0.082433
      9 C31         4.1500   -1.5850    1.5310 c3        1 784      0.082433
     10 C30         4.8990   -3.0730   -0.2400 c3        1 784      0.082433
     11 C5         -0.1120    3.2530   -0.0480 c3        1 784     -0.147700
     12 C2         -0.1700    2.1350    1.0240 c3        1 784     -0.149700
     13 C6          0.9790    1.2010    0.6680 c         1 784      0.734500
     14 O13         1.4400    0.2760    1.3550 o         1 784     -0.645500
     15 C7         -1.5190    3.3430   -0.6580 c3        1 784      0.173500
     16 C14        -2.2030    4.7010   -0.4020 c3        1 784     -0.091400
     17 C15        -3.5390    4.3830    0.2560 c3        1 784     -0.101400
     18 C8         -3.6110    2.8520    0.3760 c3        1 784      0.151800
     19 N3         -2.3560    2.2620   -0.0930 n3        1 784     -0.704600
     20 C1         -1.5930    1.5120    0.9180 c3        1 784      0.237800
     21 C4         -1.5560    0.0310    0.6330 ca        1 784     -0.092300
     22 C10        -1.3430   -0.8430    1.7080 ca        1 784     -0.109500
     23 C17        -1.2950   -2.2200    1.5050 ca        1 784     -0.115500
     24 C20        -1.4770   -2.7450    0.2200 ca        1 784     -0.129900
     25 C22        -1.4070   -4.2270    0.0090 ce        1 784      0.622800
     26 N25        -1.9740   -4.9990    0.8830 n2        1 784     -0.798100
     27 N24        -0.6200   -4.6260   -1.1070 nh        1 784     -0.945800
     28 C16        -1.7370   -1.8800   -0.8470 ca        1 784     -0.115500
     29 C9         -1.7700   -0.5000   -0.6430 ca        1 784     -0.109500
     30 H191        2.7820    1.4210   -2.2210 h1        1 784      0.069200
     31 H192        2.0970   -0.1440   -1.5840 h1        1 784      0.069200
     32 H211        3.6770    0.7560    0.6110 hc        1 784      0.091700
     33 H212        4.5890    1.3830   -0.8090 hc        1 784      0.091700
     34 H231        5.5750   -0.6590   -0.6350 hx        1 784      0.094200
     35 H232        4.2580   -1.0380   -1.8510 hx        1 784      0.094200
     36 H321        1.9190   -1.4480    0.1020 hx        1 784      0.104700
     37 H322        2.4880   -2.4940   -1.3060 hx        1 784      0.104700
     38 H323        2.3370   -3.2090    0.3750 hx        1 784      0.104700
     39 H311        4.0470   -2.5300    2.1280 hx        1 784      0.104700
     40 H312        5.1550   -1.1260    1.7180 hx        1 784      0.104700
     41 H313        3.3340   -0.8720    1.8400 hx        1 784      0.104700
     42 H301        4.8400   -3.2960   -1.3380 hx        1 784      0.104700
     43 H302        5.9580   -2.8290    0.0410 hx        1 784      0.104700
     44 H303        4.5560   -3.9700    0.3410 hx        1 784      0.104700
     45 H5          0.2250    4.2330    0.3760 hc        1 784      0.112700
     46 H2         -0.0040    2.5290    2.0580 hc        1 784      0.107700
     47 H7         -1.4600    3.1620   -1.7700 h1        1 784      0.091700
     48 H141       -1.5810    5.3550    0.2570 hc        1 784      0.060700
     49 H142       -2.3480    5.2380   -1.3710 hc        1 784      0.060700
     50 H151       -3.6120    4.8590    1.2640 hc        1 784      0.060700
     51 H152       -4.3910    4.7630   -0.3600 hc        1 784      0.060700
     52 H8C1       -3.8640    2.5500    1.4280 h1        1 784      0.061700
     53 H8C2       -4.4170    2.4480   -0.2970 h1        1 784      0.061700
     54 H1         -2.0720    1.6270    1.9410 h1        1 784      0.068700
     55 H10        -1.2030   -0.4410    2.7240 ha        1 784      0.149500
     56 H17        -1.1350   -2.8930    2.3620 ha        1 784      0.146500
     57 H25        -1.9220   -5.9830    0.7220 hn        1 784      0.394400
     58 H241       -0.6270   -3.9730   -1.8600 hn        1 784      0.386300
     59 H242       -0.7860   -5.5580   -1.4230 hn        1 784      0.386300
     60 H16        -1.9510   -2.2710   -1.8540 ha        1 784      0.146500
     61 H9         -1.9870    0.1590   -1.4980 ha        1 784      0.149500
@<TRIPOS>BOND
     1    1    2 2   
     2    2    3 1   
     3    2   11 1   
     4    3    4 1   
     5    3   13 1   
     6    4    5 1   
     7    4   30 1   
     8    4   31 1   
     9    5    6 1   
    10    5   32 1   
    11    5   33 1   
    12    6    7 1   
    13    6   34 1   
    14    6   35 1   
    15    7    8 1   
    16    7    9 1   
    17    7   10 1   
    18    8   36 1   
    19    8   37 1   
    20    8   38 1   
    21    9   39 1   
    22    9   40 1   
    23    9   41 1   
    24   10   42 1   
    25   10   43 1   
    26   10   44 1   
    27   11   12 1   
    28   11   15 1   
    29   11   45 1   
    30   12   13 1   
    31   12   20 1   
    32   12   46 1   
    33   13   14 2   
    34   15   16 1   
    35   15   19 1   
    36   15   47 1   
    37   16   17 1   
    38   16   48 1   
    39   16   49 1   
    40   17   18 1   
    41   17   50 1   
    42   17   51 1   
    43   18   19 1   
    44   18   52 1   
    45   18   53 1   
    46   19   20 1   
    47   20   21 1   
    48   20   54 1   
    49   21   22 ar  
    50   21   29 ar  
    51   22   23 ar  
    52   22   55 1   
    53   23   24 ar  
    54   23   56 1   
    55   24   25 1   
    56   24   28 ar  
    57   25   26 2   
    58   25   27 1   
    59   26   57 1   
    60   27   58 1   
    61   27   59 1   
    62   28   29 ar  
    63   28   60 1   
    64   29   61 1   
@<TRIPOS>SUBSTRUCTURE
     1 784         1 TEMP              0 ****  ****    0 ROOT
