@<TRIPOS>MOLECULE
784
   61    60     1     0     0
SMALL
bcc


@<TRIPOS>ATOM
      1 O18        -2.4980   -0.4290   -0.8220 o         1 784     -0.325000
      2 C11        -1.2960   -0.4060   -0.8780 c1        1 784      0.321000
      3 N12        -0.4020   -0.5400    0.2290 n2        1 784     -0.361000
      4 C19        -0.7850   -0.5450    1.6340 c3        1 784     -0.003000
      5 C21        -1.2830   -1.9880    2.0360 c3        1 784     -0.212000
      6 C23        -2.0380   -1.9180    3.3660 c3        1 784     -0.119000
      7 N29        -2.3050   -3.2870    3.8640 n4        1 784      0.030000
      8 C32        -1.1080   -3.8660    4.3310 c3        1 784     -0.188000
      9 C31        -2.8410   -4.0920    2.7970 c3        1 784     -0.188000
     10 C30        -3.2800   -3.2180    4.9700 c3        1 784     -0.188000
     11 C5         -0.4390   -0.6240   -2.1520 c3        1 784     -0.136000
     12 C2          1.0140   -0.6550   -1.6950 c3        1 784     -0.136000
     13 C6          1.0270   -0.2370   -0.3340 c2        1 784      0.329000
     14 O13         1.8800    0.4930    0.1940 o         1 784     -0.285000
     15 C7         -0.5260    0.4260   -2.9570 c3        1 784     -0.025000
     16 C14        -1.4410    0.1410   -4.1530 c3        1 784     -0.171000
     17 C15        -0.7040    0.4620   -5.2410 c3        1 784     -0.180000
     18 C8          0.8590    0.2570   -4.8080 c3        1 784     -0.086000
     19 N3          0.9510    0.6530   -3.5750 n3        1 784     -0.226000
     20 C1          1.7810    0.3710   -2.6170 c3        1 784      0.032000
     21 C4          2.1430    1.6680   -1.7970 c2        1 784     -0.083000
     22 C10         3.3570    1.7580   -1.1550 c2        1 784     -0.112000
     23 C17         3.6690    2.8900   -0.4070 c1        1 784     -0.110000
     24 C20         2.7560    3.9330   -0.3060 c1        1 784     -0.102000
     25 C22         3.0400    5.0990    0.6250 c2        1 784      0.111000
     26 N25         2.5170    5.1160    1.8440 n1        1 784     -0.296000
     27 N24         3.9130    6.2270    0.1680 n3        1 784     -0.330000
     28 C16         1.5330    3.8450   -0.9510 c1        1 784     -0.108000
     29 C9          1.2220    2.7150   -1.6980 c1        1 784     -0.109000
     30 H191       -0.0150   -0.2970    2.1870 h1        1 784      0.113000
     31 H192       -1.5040    0.0950    1.7750 h1        1 784      0.113000
     32 H211       -0.4940   -2.6010    2.1310 hc        1 784      0.119000
     33 H212       -1.8660   -2.3230    1.3570 hc        1 784      0.119000
     34 H231       -1.5050   -1.4370    4.0150 hx        1 784      0.139500
     35 H232       -2.8960   -1.4450    3.2310 hx        1 784      0.139500
     36 H321       -1.3180   -4.5510    5.0120 hx        1 784      0.141889
     37 H322       -0.6360   -4.2820    3.5870 hx        1 784      0.141889
     38 H323       -0.5350   -3.1620    4.7340 hx        1 784      0.141889
     39 H311       -2.0960   -4.5460    2.3180 hx        1 784      0.141889
     40 H312       -3.3330   -3.5190    2.1680 hx        1 784      0.141889
     41 H313       -3.4670   -4.7870    3.1800 hx        1 784      0.141889
     42 H301       -4.0880   -2.7450    4.6670 hx        1 784      0.141889
     43 H302       -3.5250   -4.1500    5.2630 hx        1 784      0.141889
     44 H303       -2.8800   -2.7310    5.7260 hx        1 784      0.141889
     45 H5         -0.6820   -1.4400   -2.6060 hc        1 784      0.146000
     46 H2          1.3890   -1.5600   -1.7890 hc        1 784      0.145000
     47 H7         -0.8180    1.2050   -2.4790 h1        1 784      0.127000
     48 H141       -1.6800   -0.7760   -4.1760 hc        1 784      0.096500
     49 H142       -2.2610    0.7140   -4.1070 hc        1 784      0.096500
     50 H151       -0.8580    1.3640   -5.4850 hc        1 784      0.098500
     51 H152       -0.9310   -0.1390   -5.9950 hc        1 784      0.098500
     52 H8C1        1.1030   -0.6830   -4.8740 h1        1 784      0.101000
     53 H8C2        1.4390    0.7960   -5.3780 h1        1 784      0.101000
     54 H1          2.5940   -0.0400   -2.9840 h1        1 784      0.103000
     55 H10         3.9890    1.0380   -1.2220 ha        1 784      0.138000
     56 H17         4.5160    2.9500    0.0380 ha        1 784      0.147000
     57 H25         1.9770    4.4170    2.1270 DU        1 784      0.149000
     58 H241        4.4410    6.1280   -0.5970 hn        1 784      0.197500
     59 H242        3.9840    7.0040    0.6870 hn        1 784      0.197500
     60 H16         0.8670    4.6040   -0.8780 ha        1 784      0.150000
     61 H9          0.3730    2.6510   -2.1450 ha        1 784      0.146000
@<TRIPOS>BOND
     1    1    2 1   
     2    2   11 1   
     3    3    4 1   
     4    3   13 1   
     5    4    5 1   
     6    4   30 1   
     7    4   31 1   
     8    5    6 1   
     9    5   32 1   
    10    5   33 1   
    11    6    7 1   
    12    6   34 1   
    13    6   35 1   
    14    7    8 1   
    15    7    9 1   
    16    7   10 1   
    17    8   36 1   
    18    8   37 1   
    19    8   38 1   
    20    9   39 1   
    21    9   40 1   
    22    9   41 1   
    23   10   42 1   
    24   10   43 1   
    25   10   44 1   
    26   11   12 1   
    27   11   15 1   
    28   11   45 1   
    29   12   13 1   
    30   12   20 1   
    31   12   46 1   
    32   13   14 1   
    33   15   16 1   
    34   15   19 1   
    35   15   47 1   
    36   16   17 1   
    37   16   48 1   
    38   16   49 1   
    39   17   18 1   
    40   17   50 1   
    41   17   51 1   
    42   18   19 1   
    43   18   52 1   
    44   18   53 1   
    45   19   20 1   
    46   20   21 1   
    47   20   54 1   
    48   21   22 1   
    49   21   29 1   
    50   22   23 1   
    51   22   55 1   
    52   23   56 1   
    53   24   25 1   
    54   24   28 1   
    55   25   26 1   
    56   25   27 1   
    57   27   58 1   
    58   27   59 1   
    59   28   60 1   
    60   29   61 1   
@<TRIPOS>SUBSTRUCTURE
     1 784         1 TEMP              0 ****  ****    0 ROOT
