@<TRIPOS>MOLECULE
785
   35    37     1     0     0
SMALL
bcc


@<TRIPOS>ATOM
      1 C1          4.8690    0.4910    0.1390 ca        1 785     -0.300900
      2 C2          5.0450   -0.9080    0.2260 ca        1 785     -0.100000
      3 C3          3.9660   -1.7770    0.1760 ca        1 785     -0.144000
      4 C4          2.6840   -1.2320    0.0480 ca        1 785      0.032000
      5 C5          2.4840    0.2310   -0.0420 ca        1 785     -0.031000
      6 C6          3.5890    1.0670    0.0050 ca        1 785     -0.081000
      7 C7          6.0400    1.3710    0.1830 ce        1 785      0.531400
      8 N1          6.0620    2.4880   -0.5920 nh        1 785     -0.499100
      9 N2          7.0850    1.0540    0.9950 nh        1 785     -0.483200
     10 N3          1.4280   -1.7830   -0.0220 na        1 785     -0.240600
     11 N4          1.1250    0.5110   -0.1620 nc        1 785     -0.364600
     12 C8          0.4880   -0.7090   -0.1520 cc        1 785      0.313500
     13 C1'        -0.9210   -0.9420   -0.2520 cd        1 785     -0.326200
     14 C2'        -1.7800    0.1730   -0.3720 cd        1 785      0.024000
     15 C3'        -3.1420   -0.0050   -0.4790 cc        1 785     -0.085900
     16 O3'        -3.9610    1.0930   -0.7520 os        1 785     -0.348900
     17 C3X        -4.5780    1.7080    0.3420 c3        1 785      0.801700
     18 FV'        -3.6920    2.1960    1.2490 f         1 785     -0.231633
     19 FW'        -5.2780    2.7500   -0.1770 f         1 785     -0.231633
     20 FX'        -5.4480    0.8860    0.9860 f         1 785     -0.231633
     21 C4'        -3.7280   -1.3050   -0.4580 cc        1 785     -0.045000
     22 C5'        -2.9250   -2.3940   -0.3420 cd        1 785     -0.274200
     23 C6'        -1.4740   -2.2850   -0.2350 c         1 785      0.583500
     24 O6'        -0.7750   -3.3300   -0.1320 o         1 785     -0.708100
     25 HC2         6.0550   -1.3380    0.2950 ha        1 785      0.121000
     26 HC3         4.1170   -2.8640    0.2320 ha        1 785      0.152000
     27 HC6         3.4420    2.1570   -0.0240 ha        1 785      0.142000
     28 HH11        5.2780    2.6680   -1.1820 hn        1 785      0.312950
     29 HH12        6.7920    3.1600   -0.5540 hn        1 785      0.312950
     30 HH21        7.9230    1.5840    1.0320 hn        1 785      0.312950
     31 HH22        7.0090    0.2420    1.5670 hn        1 785      0.312950
     32 HN3         1.1640   -2.7470    0.0030 hn        1 785      0.359700
     33 HC2'       -1.3680    1.1960   -0.3840 ha        1 785      0.146000
     34 HC4'       -4.8220   -1.3870   -0.5350 ha        1 785      0.131000
     35 HC5'       -3.3370   -3.4120   -0.3230 ha        1 785      0.137000
@<TRIPOS>BOND
     1    1    2 ar  
     2    1    6 ar  
     3    1    7 1   
     4    2    3 ar  
     5    2   25 1   
     6    3    4 ar  
     7    3   26 1   
     8    4    5 ar  
     9    4   10 2   
    10    5    6 ar  
    11    5   11 2   
    12    6   27 1   
    13    7    8 2   
    14    7    9 1   
    15    8   28 1   
    16    8   29 1   
    17    9   30 1   
    18    9   31 1   
    19   10   12 1   
    20   10   32 1   
    21   11   12 1   
    22   12   13 2   
    23   13   14 1   
    24   13   23 1   
    25   14   15 2   
    26   14   33 1   
    27   15   16 1   
    28   15   21 1   
    29   16   17 1   
    30   17   18 1   
    31   17   19 1   
    32   17   20 1   
    33   21   22 2   
    34   21   34 1   
    35   22   23 1   
    36   22   35 1   
    37   23   24 2   
@<TRIPOS>SUBSTRUCTURE
     1 785         1 TEMP              0 ****  ****    0 ROOT
