@<TRIPOS>MOLECULE
785
   35    27     1     0     0
SMALL
bcc


@<TRIPOS>ATOM
      1 C1         -0.2370    0.4260   -3.7760 c1        1 785     -0.217000
      2 C2          1.1400    0.3660   -3.7820 c1        1 785     -0.122000
      3 C3          1.8290    0.2600   -2.5970 c1        1 785     -0.122000
      4 C4          1.1290    0.2130   -1.3800 c1        1 785      0.000500
      5 C5         -0.2250    0.2740   -1.3740 c1        1 785      0.000500
      6 C6         -0.9250    0.3810   -2.5760 c1        1 785     -0.081000
      7 C7         -0.9400    0.6320   -5.0470 c2        1 785      0.354000
      8 N1         -1.2930   -0.4560   -5.8280 n3        1 785     -0.342000
      9 N2         -1.2400    1.8770   -5.4510 n2        1 785     -0.348000
     10 N3          1.5550    0.1100   -0.0810 n1        1 785     -0.221000
     11 N4         -0.6440    0.2070   -0.0710 n1        1 785     -0.221000
     12 C8          0.4570    0.1060    0.7220 c2        1 785      0.200000
     13 C1'         0.1430    0.1510    2.1220 c1        1 785     -0.307000
     14 C2'        -0.0250   -1.0240    2.8310 c1        1 785      0.024000
     15 C3'        -0.3460   -0.9780    4.2030 c1        1 785     -0.130000
     16 O3'        -0.6510   -2.1560    4.8850 o         1 785     -0.233000
     17 C3X         0.4050   -2.6340    5.6920 c3        1 785      0.516000
     18 FV'         0.3450   -3.9420    5.7670 f         1 785     -0.160667
     19 FW'         1.5790   -2.2710    5.1480 f         1 785     -0.160667
     20 FX'         0.2960   -2.1120    6.9160 f         1 785     -0.160667
     21 C4'        -0.4950    0.2680    4.8490 c2        1 785     -0.045000
     22 C5'        -0.3260    1.4430    4.1360 c1        1 785     -0.255000
     23 C6'        -0.0080    1.3980    2.7750 c1        1 785      0.306000
     24 O6'         0.1780    2.6100    2.0510 o         1 785     -0.469000
     25 HC2         1.6240    0.3980   -4.6220 ha        1 785      0.136500
     26 HC3         2.7800    0.2180   -2.6000 ha        1 785      0.136500
     27 HC6        -1.8570    0.4230   -2.5700 ha        1 785      0.142000
     28 HH11       -1.0500   -1.2750   -5.5790 hn        1 785      0.265000
     29 HH12       -1.7980   -0.3350   -6.5730 hn        1 785      0.265000
     30 HH21       -0.9970    2.5960   -4.9180 DU        1 785      0.293000
     31 HH22       -1.6760    2.0200   -6.2400 hn        1 785      0.248000
     32 HN3         2.4580    0.0510    0.2090 DU        1 785      0.293000
     33 HC2'       -0.0350   -1.8850    2.3560 ha        1 785      0.146000
     34 HC4'       -0.7170    0.3030    5.8000 ha        1 785      0.131000
     35 HC5'       -0.4340    2.3380    4.6020 ha        1 785      0.137000
@<TRIPOS>BOND
     1    1    6 1   
     2    1    7 1   
     3    2    3 1   
     4    2   25 1   
     5    3   26 1   
     6    4    5 1   
     7    6   27 1   
     8    7    8 1   
     9    7    9 1   
    10    8   28 1   
    11    8   29 1   
    12    9   31 1   
    13   10   12 1   
    14   11   12 1   
    15   12   13 1   
    16   13   23 1   
    17   14   15 1   
    18   14   33 1   
    19   15   21 1   
    20   16   17 1   
    21   17   18 1   
    22   17   19 1   
    23   17   20 1   
    24   21   22 1   
    25   21   34 1   
    26   22   35 1   
    27   23   24 1   
@<TRIPOS>SUBSTRUCTURE
     1 785         1 TEMP              0 ****  ****    0 ROOT
