@<TRIPOS>MOLECULE
786
   70    73     1     0     0
SMALL
bcc


@<TRIPOS>ATOM
      1 C1          0.0530    2.3200    0.9180 c3        1 786      0.072000
      2 N2          1.1780    1.4570    0.5730 n         1 786     -0.424800
      3 C3          2.0370    1.2160    1.7320 c3        1 786      0.056400
      4 C4          1.3280    1.8370    2.9620 c3        1 786     -0.079400
      5 C5          0.0650    2.5130    2.4420 c3        1 786     -0.092400
      6 C6          1.1740    0.5940   -0.4910 c         1 786      0.637100
      7 O7          2.0720   -0.2650   -0.6520 o         1 786     -0.640100
      8 C8          0.0590    0.7040   -1.5460 c3        1 786      0.042100
      9 C9          0.4770   -0.1060   -2.7960 c3        1 786      0.062100
     10 C10        -0.5450    0.1590   -3.9040 c         1 786      0.541100
     11 O11        -1.1680    0.2020   -1.0580 oh        1 786     -0.596800
     12 O12        -0.4040    0.9920   -4.7840 o         1 786     -0.401100
     13 N13        -1.8020   -0.6440   -3.8200 n4        1 786     -0.673800
     14 O14         0.4460   -1.4850   -2.4960 oh        1 786     -0.620800
     15 C15        -2.7740   -0.4700   -4.9850 c3        1 786      0.210800
     16 C16        -2.4850   -1.4980   -6.0280 ca        1 786     -0.225300
     17 C17        -1.8560   -1.1130   -7.2200 ca        1 786     -0.075000
     18 C18        -1.6080   -2.0370   -8.2240 ca        1 786     -0.152500
     19 C19        -1.9850   -3.3930   -8.0570 ca        1 786      0.114800
     20 C20        -2.6120   -3.7770   -6.8450 ca        1 786     -0.152500
     21 C21        -2.8570   -2.8370   -5.8550 ca        1 786     -0.075000
     22 N22        -1.7360   -4.3420   -9.0630 na        1 786      0.112300
     23 C23         3.4340    1.7910    1.6070 cc        1 786      0.462600
     24 N24        -0.9010   -4.1170  -10.1150 nc        1 786     -0.501800
     25 C25        -0.9340   -5.2230  -10.8800 cd        1 786      0.340200
     26 C26        -1.8370   -6.2170  -10.3100 cd        1 786     -0.263300
     27 C27        -2.3340   -5.6280   -9.1550 cc        1 786     -0.120300
     28 N28         3.6470    3.0470    1.1150 nc        1 786     -0.600000
     29 C29         4.9880    3.3280    1.2060 cd        1 786      0.290300
     30 S30         5.9130    2.0870    1.8640 ss        1 786      0.391700
     31 C31         4.6130    1.1250    2.0510 cd        1 786     -0.483900
     32 N32         5.4990    4.6230    0.7780 n4        1 786     -0.696700
     33 C33         5.1820    5.7060    1.7480 c3        1 786      0.084100
     34 C34        -4.2100   -0.5290   -4.4850 c3        1 786     -0.130100
     35 S35         4.6330   -0.4550    2.7600 sy        1 786      1.417300
     36 O36         5.8780   -0.5450    3.3780 o         1 786     -0.625800
     37 O37         3.4690   -0.6050    3.5060 o         1 786     -0.625800
     38 C38         4.5780   -1.3900    1.3800 c3        1 786     -0.409300
     39 H1         -0.9170    1.8600    0.5820 h1        1 786      0.068200
     40 H1A         0.1850    3.3050    0.3900 h1        1 786      0.068200
     41 H3          2.1430    0.0960    1.8680 h1        1 786      0.104700
     42 H4          1.0910    1.0200    3.6910 hc        1 786      0.085200
     43 H4A         1.9900    2.5710    3.4810 hc        1 786      0.085200
     44 H5         -0.8470    2.0540    2.8990 hc        1 786      0.077200
     45 H5A         0.0590    3.6030    2.6920 hc        1 786      0.077200
     46 H8         -0.1420    1.7800   -1.8160 h1        1 786      0.121700
     47 H9          1.4910    0.2230   -3.1620 h1        1 786      0.127700
     48 HO11       -1.0000   -0.6700   -0.6680 ho        1 786      0.442000
     49 HN13       -1.5270   -1.6370   -3.7630 hn        1 786      0.472800
     50 HO14        1.3040   -1.7190   -2.0990 ho        1 786      0.482000
     51 H15        -2.5820    0.5670   -5.4060 hx        1 786      0.118700
     52 H17        -1.5620   -0.0610   -7.3740 ha        1 786      0.141500
     53 H18        -1.1190   -1.7000   -9.1550 ha        1 786      0.172500
     54 H20        -2.9130   -4.8230   -6.6720 ha        1 786      0.172500
     55 H21        -3.3630   -3.1590   -4.9310 ha        1 786      0.141500
     56 H25        -0.3460   -5.3160  -11.7970 h4        1 786      0.065100
     57 H26        -2.0580   -7.1970  -10.7200 ha        1 786      0.188000
     58 H27        -3.0510   -5.9890   -8.4190 h4        1 786      0.184000
     59 HN32        6.5180    4.5490    0.6600 hn        1 786      0.468800
     60 H33         5.6080    6.6700    1.3560 hx        1 786      0.118367
     61 H33A        4.0660    5.7950    1.8570 hx        1 786      0.118367
     62 H33B        5.6350    5.4660    2.7470 hx        1 786      0.118367
     63 H34        -4.8840   -0.4200   -5.3740 hc        1 786      0.079033
     64 H34A       -4.4290    0.3060   -3.7760 hc        1 786      0.079033
     65 H34B       -4.4470   -1.5030   -3.9920 hc        1 786      0.079033
     66 H38         3.8390   -1.0510    0.6060 h1        1 786      0.144033
     67 H38A        5.5630   -1.4740    0.8510 h1        1 786      0.144033
     68 H38B        4.2840   -2.4500    1.6170 h1        1 786      0.144033
     69 H132       -2.2650   -0.3890   -2.9340 hn        1 786      0.472800
     70 H322        5.0820    4.8620   -0.1370 hn        1 786      0.468800
@<TRIPOS>BOND
     1    1    2 1   
     2    1    5 1   
     3    1   39 1   
     4    1   40 1   
     5    2    3 1   
     6    2    6 1   
     7    3    4 1   
     8    3   23 1   
     9    3   41 1   
    10    4    5 1   
    11    4   42 1   
    12    4   43 1   
    13    5   44 1   
    14    5   45 1   
    15    6    7 2   
    16    6    8 1   
    17    8    9 1   
    18    8   11 1   
    19    8   46 1   
    20    9   10 1   
    21    9   14 1   
    22    9   47 1   
    23   10   12 2   
    24   10   13 1   
    25   11   48 1   
    26   13   15 1   
    27   13   49 1   
    28   13   69 1   
    29   14   50 1   
    30   15   16 1   
    31   15   34 1   
    32   15   51 1   
    33   16   17 ar  
    34   16   21 ar  
    35   17   18 ar  
    36   17   52 1   
    37   18   19 ar  
    38   18   53 1   
    39   19   20 ar  
    40   19   22 1   
    41   20   21 ar  
    42   20   54 1   
    43   21   55 1   
    44   22   24 1   
    45   22   27 1   
    46   23   28 1   
    47   23   31 2   
    48   24   25 2   
    49   25   26 1   
    50   25   56 1   
    51   26   27 2   
    52   26   57 1   
    53   27   58 1   
    54   28   29 2   
    55   29   30 1   
    56   29   32 1   
    57   30   31 1   
    58   31   35 1   
    59   32   33 1   
    60   32   59 1   
    61   32   70 1   
    62   33   60 1   
    63   33   61 1   
    64   33   62 1   
    65   34   63 1   
    66   34   64 1   
    67   34   65 1   
    68   35   36 2   
    69   35   37 2   
    70   35   38 1   
    71   38   66 1   
    72   38   67 1   
    73   38   68 1   
@<TRIPOS>SUBSTRUCTURE
     1 786         1 TEMP              0 ****  ****    0 ROOT
