@<TRIPOS>MOLECULE
786
   68    62     1     0     0
SMALL
bcc


@<TRIPOS>ATOM
      1 C1         -5.0520   -0.8670    1.3610 c3        1 786     -0.022000
      2 N2         -3.4540   -0.7820    1.3200 n         1 786     -0.299000
      3 C3         -3.0270   -1.4090    2.3710 c3        1 786      0.087000
      4 C4         -4.1480   -2.4680    2.7030 c3        1 786     -0.153000
      5 C5         -5.3490   -2.0780    1.8350 c3        1 786     -0.171000
      6 C6         -2.6500   -0.1360    0.3130 c2        1 786      0.325000
      7 O7         -3.1850    0.4180   -0.6270 o         1 786     -0.399000
      8 C8         -1.1300   -0.2480    0.3650 c3        1 786     -0.005000
      9 C9         -0.5130    0.9320   -0.3500 c3        1 786     -0.007000
     10 C10         0.7740    0.4970   -1.0310 c2        1 786      0.308000
     11 O11        -0.7080   -0.2580    1.7020 oh        1 786     -0.312000
     12 O12         1.2740   -0.5770   -0.7530 o         1 786     -0.399000
     13 N13         1.4330    1.3790   -1.9570 n         1 786     -0.348000
     14 O14        -0.2310    1.9470    0.5790 oh        1 786     -0.331000
     15 C15         2.8520    1.3940   -2.0370 c3        1 786      0.059000
     16 C16         3.2930    0.8130   -3.3760 c2        1 786     -0.098000
     17 C17         3.1980    1.5770   -4.5270 c2        1 786     -0.106000
     18 C18         3.6730    1.0780   -5.7370 c1        1 786     -0.151000
     19 C19         4.2420   -0.1850   -5.7900 c1        1 786      0.079000
     20 C20         4.3380   -0.9540   -4.6330 c1        1 786     -0.121000
     21 C21         3.8640   -0.4560   -3.4290 c1        1 786     -0.102000
     22 N22         4.6180   -0.7040   -6.9770 n2        1 786     -0.081000
     23 C23        -2.8550   -0.4260    3.5460 c2        1 786      0.108000
     24 N24         5.9550   -0.5350   -7.2390 n2        1 786     -0.081000
     25 C25         6.2560   -1.2410   -8.3510 c1        1 786     -0.136500
     26 C26         5.1130   -1.8500   -8.7850 c1        1 786     -0.231000
     27 C27         4.1040   -1.5130   -7.9290 c1        1 786     -0.136500
     28 N28        -3.1640    1.1170    3.4800 n2        1 786     -0.181000
     29 C29        -2.7700    1.7120    4.7260 c1        1 786     -0.108000
     30 S30        -2.2010    0.5910    5.6280 ss        1 786      0.617000
     31 C31        -2.2800   -0.7210    4.8390 c1        1 786     -1.253000
     32 N32        -2.7510    3.1370    5.0210 n2        1 786     -0.272000
     33 C33        -2.8270    3.5920    6.3930 c3        1 786     -0.097000
     34 C34         3.3460    2.8120   -1.9160 c3        1 786     -0.230000
     35 S35        -1.8730   -2.3340    5.4550 ss        1 786      2.904000
     36 O36        -3.0550   -3.0910    5.7540 o         1 786     -0.951000
     37 O37        -1.2720   -3.1460    4.4350 o         1 786     -0.951000
     38 C38        -0.8230   -2.2010    6.8700 c2        1 786     -0.944000
     39 H1         -5.4180   -0.7600    0.4590 h1        1 786      0.101000
     40 H1A        -5.4110   -0.1760    1.9550 h1        1 786      0.101000
     41 H3         -2.1790   -1.8600    2.1770 h1        1 786      0.123000
     42 H4         -4.3860   -2.4230    3.6490 hc        1 786      0.113500
     43 H4A        -3.8410   -3.3710    2.4710 hc        1 786      0.113500
     44 H5         -6.1650   -2.0400    2.3790 hc        1 786      0.094000
     45 H5A        -5.4580   -2.7150    1.0970 hc        1 786      0.094000
     46 H8         -0.8490   -1.0780   -0.0710 h1        1 786      0.112000
     47 H9         -1.1370    1.2700   -1.0210 h1        1 786      0.117000
     48 HO11        0.1220   -0.5830    1.7490 ho        1 786      0.232000
     49 HN13        0.9430    1.9590   -2.4600 hn        1 786      0.238000
     50 HO14       -0.1860    2.7300    0.1590 ho        1 786      0.249000
     51 H15         3.2250    0.8560   -1.3090 h1        1 786      0.133000
     52 H17         2.7970    2.4680   -4.4900 ha        1 786      0.135000
     53 H18         3.6060    1.6190   -6.5500 ha        1 786      0.141000
     54 H20         4.7370   -1.8430   -4.6700 ha        1 786      0.163000
     55 H21         3.9310   -0.9930   -2.6200 ha        1 786      0.145000
     56 H25         7.1370   -1.3040   -8.7700 DU        1 786      0.176333
     57 H26         5.0320   -2.4260   -9.5700 DU        1 786      0.176333
     58 H27         3.1740   -1.8050   -7.9940 DU        1 786      0.176333
     59 HN32       -2.6290    3.7420    4.3460 hn        1 786      0.242000
     60 H33        -2.2760    3.0130    6.9600 h1        1 786      0.092000
     61 H33A       -3.7600    3.5570    6.6980 h1        1 786      0.092000
     62 H33B       -2.4960    4.5200    6.4500 h1        1 786      0.092000
     63 H34         3.3560    3.0770   -0.9690 hc        1 786      0.087000
     64 H34A        4.2540    2.8740   -2.2830 hc        1 786      0.087000
     65 H34B        2.7520    3.4090   -2.4160 hc        1 786      0.087000
     66 H38        -1.2050   -2.7160    7.6100 ha        1 786      0.157667
     67 H38A       -0.7470   -1.2600    7.1310 ha        1 786      0.157667
     68 H38B        0.0650   -2.5520    6.6510 ha        1 786      0.157667
@<TRIPOS>BOND
     1    1    2 1   
     2    1    5 1   
     3    1   39 1   
     4    1   40 1   
     5    2    3 1   
     6    2    6 1   
     7    3    4 1   
     8    3   23 1   
     9    3   41 1   
    10    4    5 1   
    11    4   42 1   
    12    4   43 1   
    13    5   44 1   
    14    5   45 1   
    15    6    7 1   
    16    6    8 1   
    17    8    9 1   
    18    8   11 1   
    19    8   46 1   
    20    9   10 1   
    21    9   14 1   
    22    9   47 1   
    23   10   12 1   
    24   10   13 1   
    25   11   48 1   
    26   13   15 1   
    27   13   49 1   
    28   14   50 1   
    29   15   16 1   
    30   15   34 1   
    31   15   51 1   
    32   16   17 1   
    33   16   21 1   
    34   17   18 1   
    35   17   52 1   
    36   18   53 1   
    37   19   20 1   
    38   20   54 1   
    39   21   55 1   
    40   22   24 1   
    41   22   27 1   
    42   23   28 1   
    43   23   31 1   
    44   24   25 1   
    45   25   26 1   
    46   26   27 1   
    47   28   29 1   
    48   29   30 1   
    49   30   31 1   
    50   32   33 1   
    51   32   59 1   
    52   33   60 1   
    53   33   61 1   
    54   33   62 1   
    55   34   63 1   
    56   34   64 1   
    57   34   65 1   
    58   35   36 1   
    59   35   37 1   
    60   38   66 1   
    61   38   67 1   
    62   38   68 1   
@<TRIPOS>SUBSTRUCTURE
     1 786         1 TEMP              0 ****  ****    0 ROOT
