@<TRIPOS>MOLECULE
786
   68    71     1     0     0
SMALL
bcc


@<TRIPOS>ATOM
      1 C1          0.0720   -0.4930    0.9650 c3        1 786      0.098000
      2 N2          1.1220   -0.6500   -0.0170 n         1 786     -0.462800
      3 C3          2.2730   -1.3580    0.5310 c3        1 786      0.066400
      4 C4          1.8480   -1.8940    1.9210 c3        1 786     -0.075400
      5 C5          0.4360   -1.3760    2.1710 c3        1 786     -0.087400
      6 C6          1.0720   -0.2240   -1.3220 c         1 786      0.647100
      7 O7          1.9970   -0.4790   -2.1200 o         1 786     -0.612100
      8 C8         -0.1440    0.5690   -1.8210 c3        1 786      0.059100
      9 C9         -0.0330    2.0450   -1.3770 c3        1 786      0.050100
     10 C10        -1.4320    2.6460   -1.1660 c         1 786      0.633100
     11 O11        -0.2030    0.4980   -3.2270 oh        1 786     -0.576800
     12 O12        -1.8940    3.4340   -2.0140 o         1 786     -0.596100
     13 N13        -2.1110    2.3060   -0.0200 n         1 786     -0.565900
     14 O14         0.6550    2.7880   -2.3580 oh        1 786     -0.577800
     15 C15        -3.4580    2.7650    0.2560 c3        1 786      0.145000
     16 C16        -4.4390    1.6180    0.3280 ca        1 786     -0.118300
     17 C17        -5.4630    1.5180   -0.6180 ca        1 786     -0.105000
     18 C18        -6.3850    0.4770   -0.5660 ca        1 786     -0.137000
     19 C19        -6.2900   -0.4970    0.4500 ca        1 786      0.037800
     20 C20        -5.2580   -0.3940    1.4070 ca        1 786     -0.137000
     21 C21        -4.3450    0.6520    1.3330 ca        1 786     -0.105000
     22 N22        -7.2150   -1.5720    0.5170 na        1 786      0.144300
     23 C23         3.5170   -0.5000    0.6720 cc        1 786      0.514600
     24 N24        -8.4640   -1.5230    0.0040 nc        1 786     -0.500800
     25 C25        -9.0360   -2.7230    0.2600 cd        1 786      0.303200
     26 C26        -8.1130   -3.5860    0.9680 cd        1 786     -0.294300
     27 C27        -6.9540   -2.8210    1.1180 cc        1 786     -0.133300
     28 N28         3.4170    0.7960    1.0950 nc        1 786     -0.722000
     29 C29         4.6740    1.3440    1.1610 cd        1 786      0.644300
     30 S30         5.9190    0.2530    0.7040 ss        1 786      0.059700
     31 C31         4.8220   -0.9720    0.3950 cd        1 786     -0.582900
     32 N32         4.9340    2.6100    1.6470 nh        1 786     -0.819900
     33 C33         6.1600    3.2550    1.2740 c3        1 786      0.172100
     34 C34        -3.5410    3.5840    1.5480 c3        1 786     -0.104100
     35 S35         5.2010   -2.4830   -0.1500 sy        1 786      1.438300
     36 O36         6.5830   -2.6990   -0.0050 o         1 786     -0.670300
     37 O37         4.3540   -3.4470    0.4250 o         1 786     -0.670300
     38 C38         4.8350   -2.3470   -1.7920 c3        1 786     -0.377300
     39 H1          0.0040    0.5860    1.2820 h1        1 786      0.039200
     40 H1A        -0.9180   -0.7990    0.5270 h1        1 786      0.039200
     41 H3          2.5200   -2.2160   -0.1650 h1        1 786      0.097700
     42 H4          1.8840   -3.0120    1.9040 hc        1 786      0.076700
     43 H4A         2.5510   -1.5400    2.7140 hc        1 786      0.076700
     44 H5          0.3890   -0.7780    3.1140 hc        1 786      0.056700
     45 H5A        -0.2870   -2.2240    2.2620 hc        1 786      0.056700
     46 H8         -1.1050    0.1020   -1.4680 h1        1 786      0.096700
     47 H9          0.5920    2.1450   -0.4450 h1        1 786      0.105700
     48 HO11        0.6890    0.6700   -3.5710 ho        1 786      0.438000
     49 HN13       -1.7280    1.6280    0.5940 hn        1 786      0.306500
     50 HO14        0.0400    2.9500   -3.0920 ho        1 786      0.437000
     51 H15        -3.7590    3.4460   -0.6020 h1        1 786      0.098700
     52 H17        -5.5450    2.2690   -1.4210 ha        1 786      0.139500
     53 H18        -7.1850    0.4270   -1.3230 ha        1 786      0.152500
     54 H20        -5.1710   -1.1270    2.2230 ha        1 786      0.152500
     55 H21        -3.5490    0.7240    2.0910 ha        1 786      0.139500
     56 H25       -10.0570   -2.9510   -0.0480 h4        1 786      0.047100
     57 H26        -8.2940   -4.6010    1.2990 ha        1 786      0.169000
     58 H27        -5.9930   -3.0550    1.5720 h4        1 786      0.177000
     59 HN32        4.1430    3.2100    1.7660 hn        1 786      0.438800
     60 H33         7.0240    2.5570    1.4460 h1        1 786      0.053700
     61 H33A        6.1660    3.5780    0.1970 h1        1 786      0.053700
     62 H33B        6.2900    4.1600    1.9250 h1        1 786      0.053700
     63 H34        -3.2290    2.9820    2.4340 hc        1 786      0.046367
     64 H34A       -2.8890    4.4880    1.4800 hc        1 786      0.046367
     65 H34B       -4.5980    3.9130    1.6960 hc        1 786      0.046367
     66 H38         5.6750   -1.9110   -2.3860 h1        1 786      0.125700
     67 H38A        4.6140   -3.3480   -2.2430 h1        1 786      0.125700
     68 H38B        3.9370   -1.7100   -2.0120 h1        1 786      0.125700
@<TRIPOS>BOND
     1    1    2 1   
     2    1    5 1   
     3    1   39 1   
     4    1   40 1   
     5    2    3 1   
     6    2    6 1   
     7    3    4 1   
     8    3   23 1   
     9    3   41 1   
    10    4    5 1   
    11    4   42 1   
    12    4   43 1   
    13    5   44 1   
    14    5   45 1   
    15    6    7 2   
    16    6    8 1   
    17    8    9 1   
    18    8   11 1   
    19    8   46 1   
    20    9   10 1   
    21    9   14 1   
    22    9   47 1   
    23   10   12 2   
    24   10   13 1   
    25   11   48 1   
    26   13   15 1   
    27   13   49 1   
    28   14   50 1   
    29   15   16 1   
    30   15   34 1   
    31   15   51 1   
    32   16   17 ar  
    33   16   21 ar  
    34   17   18 ar  
    35   17   52 1   
    36   18   19 ar  
    37   18   53 1   
    38   19   20 ar  
    39   19   22 1   
    40   20   21 ar  
    41   20   54 1   
    42   21   55 1   
    43   22   24 1   
    44   22   27 1   
    45   23   28 1   
    46   23   31 2   
    47   24   25 2   
    48   25   26 1   
    49   25   56 1   
    50   26   27 2   
    51   26   57 1   
    52   27   58 1   
    53   28   29 2   
    54   29   30 1   
    55   29   32 1   
    56   30   31 1   
    57   31   35 1   
    58   32   33 1   
    59   32   59 1   
    60   33   60 1   
    61   33   61 1   
    62   33   62 1   
    63   34   63 1   
    64   34   64 1   
    65   34   65 1   
    66   35   36 2   
    67   35   37 2   
    68   35   38 1   
    69   38   66 1   
    70   38   67 1   
    71   38   68 1   
@<TRIPOS>SUBSTRUCTURE
     1 786         1 TEMP              0 ****  ****    0 ROOT
