@<TRIPOS>MOLECULE
786
   69    72     1     0     0
SMALL
bcc


@<TRIPOS>ATOM
      1 C1         -0.2020    0.8010    1.1160 c3        1 786      0.085000
      2 N2          1.1660    0.5890    0.6730 n         1 786     -0.418800
      3 C3          2.1000    0.5230    1.7970 c3        1 786      0.060400
      4 C4          1.2360    0.4700    3.0820 c3        1 786     -0.076400
      5 C5         -0.2180    0.6040    2.6400 c3        1 786     -0.086400
      6 C6          1.5490    0.4120   -0.6160 c         1 786      0.644100
      7 O7          2.7270    0.1420   -0.9540 o         1 786     -0.644100
      8 C8          0.4810    0.5130   -1.7240 c3        1 786      0.034100
      9 C9          1.2080    0.6980   -3.0760 c3        1 786      0.068100
     10 C10         0.1670    0.9840   -4.1580 c         1 786      0.542100
     11 O11        -0.3270   -0.6460   -1.7760 oh        1 786     -0.608800
     12 O12        -0.0990    2.0840   -4.6160 o         1 786     -0.408100
     13 N13        -0.5840   -0.2180   -4.6390 n4        1 786     -0.675800
     14 O14         1.8690   -0.4950   -3.4440 oh        1 786     -0.630800
     15 C15        -1.6430    0.0530   -5.6940 c3        1 786      0.207800
     16 C16        -1.9180   -1.2180   -6.4340 ca        1 786     -0.216300
     17 C17        -1.4290   -1.3740   -7.7370 ca        1 786     -0.077500
     18 C18        -1.6910   -2.5290   -8.4610 ca        1 786     -0.149500
     19 C19        -2.4560   -3.5730   -7.8850 ca        1 786      0.104800
     20 C20        -2.9410   -3.4110   -6.5650 ca        1 786     -0.149500
     21 C21        -2.6750   -2.2450   -5.8600 ca        1 786     -0.077500
     22 N22        -2.7260   -4.7530   -8.6050 na        1 786      0.117300
     23 C23         3.0630    1.6900    1.8730 cc        1 786      0.501600
     24 N24        -2.0750   -5.0980   -9.7480 nc        1 786     -0.499800
     25 C25        -2.6000   -6.2690  -10.1560 cd        1 786      0.334200
     26 C26        -3.6480   -6.7080   -9.2430 cd        1 786     -0.270300
     27 C27        -3.7060   -5.7210   -8.2650 cc        1 786     -0.122300
     28 N28         2.6320    2.9570    1.5970 nc        1 786     -0.733000
     29 C29         3.6740    3.8350    1.7890 cd        1 786      0.644300
     30 S30         5.1180    3.0720    2.3150 ss        1 786      0.084700
     31 C31         4.4150    1.5560    2.2670 cd        1 786     -0.584900
     32 N32         3.5990    5.1810    1.5140 nh        1 786     -0.821900
     33 C33         4.5900    6.0630    2.0600 c3        1 786      0.171100
     34 C34        -2.8980    0.6540   -5.0790 c3        1 786     -0.124100
     35 S35         5.1780    0.1340    2.6330 sy        1 786      1.439300
     36 O36         6.3580    0.4020    3.3380 o         1 786     -0.661300
     37 O37         4.2710   -0.7720    3.2090 o         1 786     -0.661300
     38 C38         5.5690   -0.4180    1.0820 c3        1 786     -0.368300
     39 H1         -0.5280    1.8450    0.8500 h1        1 786      0.055200
     40 H1A        -0.8840    0.0700    0.6000 h1        1 786      0.055200
     41 H3          2.7040   -0.4290    1.6870 h1        1 786      0.107700
     42 H4          1.5180    1.2940    3.7820 hc        1 786      0.084700
     43 H4A         1.4250   -0.5020    3.6040 hc        1 786      0.084700
     44 H5         -0.7990   -0.3140    2.9050 hc        1 786      0.067200
     45 H5A        -0.7080    1.4780    3.1340 hc        1 786      0.067200
     46 H8         -0.2270    1.3690   -1.5360 h1        1 786      0.115700
     47 H9          1.9200    1.5710   -3.0230 h1        1 786      0.132700
     48 HO11        0.2530   -1.4170   -1.6760 ho        1 786      0.442000
     49 HN13        0.1080   -0.8820   -5.0180 hn        1 786      0.476300
     50 HO14        2.7060   -0.5330   -2.9430 ho        1 786      0.490000
     51 H15        -1.1870    0.8170   -6.3980 hx        1 786      0.114700
     52 H17        -0.8410   -0.5710   -8.2090 ha        1 786      0.141000
     53 H18        -1.2970   -2.6190   -9.4880 ha        1 786      0.170500
     54 H20        -3.5310   -4.2030   -6.0780 ha        1 786      0.170500
     55 H21        -3.0760   -2.1370   -4.8400 ha        1 786      0.141000
     56 H25        -2.2520   -6.7800  -11.0560 h4        1 786      0.061100
     57 H26        -4.2420   -7.6120   -9.3280 ha        1 786      0.184000
     58 H27        -4.3490   -5.6170   -7.3920 h4        1 786      0.182000
     59 HN32        2.6870    5.5660    1.3780 hn        1 786      0.442800
     60 H33         4.4890    7.0600    1.5550 h1        1 786      0.059700
     61 H33A        5.6180    5.6540    1.8560 h1        1 786      0.059700
     62 H33B        4.4710    6.2020    3.1700 h1        1 786      0.059700
     63 H34        -3.6470    0.7980   -5.8990 hc        1 786      0.076033
     64 H34A       -2.6770    1.6510   -4.6240 hc        1 786      0.076033
     65 H34B       -3.3510   -0.0130   -4.3070 hc        1 786      0.076033
     66 H38         6.4660    0.0930    0.6550 h1        1 786      0.119033
     67 H38A        4.7440   -0.2850    0.3360 h1        1 786      0.119033
     68 H38B        5.8080   -1.5120    1.0930 h1        1 786      0.119033
     69 H132       -1.0200   -0.6620   -3.8140 hn        1 786      0.476300
@<TRIPOS>BOND
     1    1    2 1   
     2    1    5 1   
     3    1   39 1   
     4    1   40 1   
     5    2    3 1   
     6    2    6 1   
     7    3    4 1   
     8    3   23 1   
     9    3   41 1   
    10    4    5 1   
    11    4   42 1   
    12    4   43 1   
    13    5   44 1   
    14    5   45 1   
    15    6    7 2   
    16    6    8 1   
    17    8    9 1   
    18    8   11 1   
    19    8   46 1   
    20    9   10 1   
    21    9   14 1   
    22    9   47 1   
    23   10   12 2   
    24   10   13 1   
    25   11   48 1   
    26   13   15 1   
    27   13   49 1   
    28   13   69 1   
    29   14   50 1   
    30   15   16 1   
    31   15   34 1   
    32   15   51 1   
    33   16   17 ar  
    34   16   21 ar  
    35   17   18 ar  
    36   17   52 1   
    37   18   19 ar  
    38   18   53 1   
    39   19   20 ar  
    40   19   22 1   
    41   20   21 ar  
    42   20   54 1   
    43   21   55 1   
    44   22   24 1   
    45   22   27 1   
    46   23   28 1   
    47   23   31 2   
    48   24   25 2   
    49   25   26 1   
    50   25   56 1   
    51   26   27 2   
    52   26   57 1   
    53   27   58 1   
    54   28   29 2   
    55   29   30 1   
    56   29   32 1   
    57   30   31 1   
    58   31   35 1   
    59   32   33 1   
    60   32   59 1   
    61   33   60 1   
    62   33   61 1   
    63   33   62 1   
    64   34   63 1   
    65   34   64 1   
    66   34   65 1   
    67   35   36 2   
    68   35   37 2   
    69   35   38 1   
    70   38   66 1   
    71   38   67 1   
    72   38   68 1   
@<TRIPOS>SUBSTRUCTURE
     1 786         1 TEMP              0 ****  ****    0 ROOT
