@<TRIPOS>MOLECULE
786
   69    72     1     0     0
SMALL
bcc


@<TRIPOS>ATOM
      1 C1         -0.2180    0.8130    1.1100 c3        1 786      0.085000
      2 N2          1.1520    0.6030    0.6730 n         1 786     -0.418800
      3 C3          2.0830    0.5440    1.8010 c3        1 786      0.060400
      4 C4          1.2140    0.4930    3.0820 c3        1 786     -0.076400
      5 C5         -0.2380    0.6220    2.6350 c3        1 786     -0.086400
      6 C6          1.5410    0.4220   -0.6140 c         1 786      0.644100
      7 O7          2.7200    0.1540   -0.9470 o         1 786     -0.644100
      8 C8          0.4770    0.5150   -1.7260 c3        1 786      0.034100
      9 C9          1.2080    0.6960   -3.0760 c3        1 786      0.068100
     10 C10         0.1700    0.9750   -4.1630 c         1 786      0.542100
     11 O11        -0.3290   -0.6460   -1.7760 oh        1 786     -0.608800
     12 O12        -0.0970    2.0720   -4.6270 o         1 786     -0.408100
     13 N13        -0.5760   -0.2310   -4.6420 ny        1 786     -0.675800
     14 O14         1.8740   -0.4960   -3.4370 oh        1 786     -0.630800
     15 C15        -1.6300    0.0320   -5.7020 c3        1 786      0.207800
     16 C16        -1.8990   -1.2420   -6.4380 ca        1 786     -0.216300
     17 C17        -1.4020   -1.4040   -7.7380 ca        1 786     -0.077500
     18 C18        -1.6570   -2.5620   -8.4580 ca        1 786     -0.149500
     19 C19        -2.4250   -3.6050   -7.8830 ca        1 786      0.104800
     20 C20        -2.9180   -3.4370   -6.5660 ca        1 786     -0.149500
     21 C21        -2.6570   -2.2680   -5.8650 ca        1 786     -0.077500
     22 N22        -2.6890   -4.7880   -8.5990 na        1 786      0.116300
     23 C23         3.0410    1.7140    1.8750 cc        1 786      0.501600
     24 N24        -2.0290   -5.1380   -9.7360 nc        1 786     -0.499800
     25 C25        -2.5510   -6.3110  -10.1420 cd        1 786      0.334200
     26 C26        -3.6040   -6.7460   -9.2350 cd        1 786     -0.270300
     27 C27        -3.6700   -5.7550   -8.2620 cc        1 786     -0.122300
     28 N28         2.6070    2.9790    1.5930 nc        1 786     -0.733000
     29 C29         3.6460    3.8600    1.7850 cd        1 786      0.644300
     30 S30         5.0910    3.1040    2.3190 ss        1 786      0.084700
     31 C31         4.3920    1.5860    2.2740 cd        1 786     -0.584900
     32 N32         3.5680    5.2060    1.5040 nu        1 786     -0.821900
     33 C33         4.5550    6.0930    2.0500 c3        1 786      0.171100
     34 C34        -2.8900    0.6330   -5.0970 c3        1 786     -0.124100
     35 S35         5.1590    0.1680    2.6490 sy        1 786      1.439300
     36 O36         6.3360    0.4430    3.3570 o         1 786     -0.661300
     37 O37         4.2530   -0.7390    3.2250 o         1 786     -0.661300
     38 C38         5.5570   -0.3890    1.1010 c3        1 786     -0.368300
     39 H1         -0.8960    0.0780    0.5950 h1        1 786      0.055200
     40 H1A        -0.5450    1.8550    0.8390 h1        1 786      0.055200
     41 H3          2.6890   -0.4070    1.6960 h1        1 786      0.107700
     42 H4          1.4910    1.3210    3.7800 hc        1 786      0.084700
     43 H4A         1.4030   -0.4760    3.6080 hc        1 786      0.084700
     44 H5         -0.8180   -0.2970    2.9010 hc        1 786      0.067200
     45 H5A        -0.7330    1.4970    3.1230 hc        1 786      0.067200
     46 H8         -0.2340    1.3700   -1.5440 h1        1 786      0.115700
     47 H9          1.9170    1.5720   -3.0250 h1        1 786      0.132700
     48 HO11        0.2520   -1.4150   -1.6710 ho        1 786      0.442000
     49 HN13       -1.0140   -0.6720   -3.8160 hn        1 786      0.476300
     50 HO14        2.7080   -0.5290   -2.9320 ho        1 786      0.490000
     51 H15        -1.1730    0.7940   -6.4090 hx        1 786      0.114700
     52 H17        -0.8120   -0.6010   -8.2100 ha        1 786      0.141500
     53 H18        -1.2560   -2.6560   -9.4820 ha        1 786      0.170500
     54 H20        -3.5100   -4.2290   -6.0790 ha        1 786      0.170500
     55 H21        -3.0650   -2.1560   -4.8470 ha        1 786      0.141500
     56 H25        -2.1970   -6.8260  -11.0390 h4        1 786      0.061100
     57 H26        -4.1970   -7.6510   -9.3200 ha        1 786      0.184000
     58 H27        -4.3190   -5.6480   -7.3930 h4        1 786      0.182000
     59 HN32        2.6560    5.5870    1.3640 hn        1 786      0.442800
     60 H33         4.4310    6.2370    3.1580 h1        1 786      0.059700
     61 H33A        5.5840    5.6860    1.8510 h1        1 786      0.059700
     62 H33B        4.4540    7.0870    1.5390 h1        1 786      0.059700
     63 H34        -3.3450   -0.0320   -4.3240 hc        1 786      0.076033
     64 H34A       -3.6360    0.7720   -5.9210 hc        1 786      0.076033
     65 H34B       -2.6740    1.6320   -4.6450 hc        1 786      0.076033
     66 H38         5.8000   -1.4820    1.1170 h1        1 786      0.119033
     67 H38A        4.7340   -0.2630    0.3520 h1        1 786      0.119033
     68 H38B        6.4540    0.1240    0.6750 h1        1 786      0.119033
     69 H132        0.1190   -0.8950   -5.0150 hn        1 786      0.476300
@<TRIPOS>BOND
     1    1    2 1   
     2    1    5 1   
     3    1   39 1   
     4    1   40 1   
     5    2    3 1   
     6    2    6 1   
     7    3    4 1   
     8    3   23 1   
     9    3   41 1   
    10    4    5 1   
    11    4   42 1   
    12    4   43 1   
    13    5   44 1   
    14    5   45 1   
    15    6    7 2   
    16    6    8 1   
    17    8    9 1   
    18    8   11 1   
    19    8   46 1   
    20    9   10 1   
    21    9   14 1   
    22    9   47 1   
    23   10   12 2   
    24   10   13 1   
    25   11   48 1   
    26   13   15 1   
    27   13   49 1   
    28   13   69 1   
    29   14   50 1   
    30   15   16 1   
    31   15   34 1   
    32   15   51 1   
    33   16   17 ar  
    34   16   21 ar  
    35   17   18 ar  
    36   17   52 1   
    37   18   19 ar  
    38   18   53 1   
    39   19   20 ar  
    40   19   22 1   
    41   20   21 ar  
    42   20   54 1   
    43   21   55 1   
    44   22   24 1   
    45   22   27 1   
    46   23   28 1   
    47   23   31 2   
    48   24   25 2   
    49   25   26 1   
    50   25   56 1   
    51   26   27 2   
    52   26   57 1   
    53   27   58 1   
    54   28   29 2   
    55   29   30 1   
    56   29   32 1   
    57   30   31 1   
    58   31   35 1   
    59   32   33 1   
    60   32   59 1   
    61   33   60 1   
    62   33   61 1   
    63   33   62 1   
    64   34   63 1   
    65   34   64 1   
    66   34   65 1   
    67   35   36 2   
    68   35   37 2   
    69   35   38 1   
    70   38   66 1   
    71   38   67 1   
    72   38   68 1   
@<TRIPOS>SUBSTRUCTURE
     1 786         1 TEMP              0 ****  ****    0 ROOT
