@<TRIPOS>MOLECULE
787
   21    20     1     0     0
SMALL
bcc


@<TRIPOS>ATOM
      1 C1        -39.2820 -152.1620   54.7280 ca        1 787     -0.492000
      2 C2        -40.5990 -152.6210   54.8800 ca        1 787     -0.091000
      3 C3        -41.6790 -151.7870   54.7730 ca        1 787     -0.270000
      4 C4        -41.5560 -150.3540   54.4920 ca        1 787      0.050000
      5 C5        -40.1700 -149.9230   54.3420 ca        1 787     -0.270000
      6 C6        -39.1170 -150.7810   54.4560 ca        1 787     -0.091000
      7 C7        -42.6470 -149.5660   54.3940 c2        1 787     -0.817000
      8 P8        -43.0260 -147.9000   54.0920 p5        1 787      1.673500
      9 P9        170.3060  638.9760 -231.8150 p3        1 787      2.361000
     10 O11       170.4270  640.2910 -232.4700 o         1 787     -1.120000
     11 O12       171.0250  637.8120 -232.3610 o         1 787     -1.120000
     12 O13       169.4660  638.8260 -230.6130 o         1 787     -1.120000
     13 O14       -43.8010 -147.4490   55.3280 o         1 787     -0.994833
     14 O15       -41.7550 -147.0920   53.8740 o         1 787     -0.994833
     15 O16       -43.9230 -147.9250   52.8560 o         1 787     -0.994833
     16 H1        -38.4250 -152.8310   54.8150 ha        1 787      0.030000
     17 H2        -40.7570 -153.6950   55.0940 ha        1 787      0.011500
     18 H3        -42.6940 -152.1860   54.8990 ha        1 787      0.095500
     19 H5        -40.0180 -148.8530   54.1290 ha        1 787      0.095500
     20 H6        -38.0870 -150.4030   54.3330 ha        1 787      0.011500
     21 H7        -43.6110 -150.0910   54.5410 ha        1 787      0.049000
@<TRIPOS>BOND
     1    1    2 1   
     2    1    6 1   
     3    1   16 1   
     4    2    3 1   
     5    2   17 1   
     6    3    4 1   
     7    3   18 1   
     8    4    5 1   
     9    4    7 1   
    10    5    6 1   
    11    5   19 1   
    12    6   20 1   
    13    7    8 1   
    14    7   21 1   
    15    8   13 1   
    16    8   14 1   
    17    8   15 1   
    18    9   10 1   
    19    9   11 1   
    20    9   12 1   
@<TRIPOS>SUBSTRUCTURE
     1 787         1 TEMP              0 ****  ****    0 ROOT
