@<TRIPOS>MOLECULE
787
   21    20     1     0     0
SMALL
bcc


@<TRIPOS>ATOM
      1 C1        -68.1430  170.0580  -48.8400 ca        1 787     -0.492000
      2 C2        -68.2320  170.1330  -50.2370 ca        1 787     -0.091000
      3 C3        -68.1730  169.0210  -51.0320 ca        1 787     -0.270000
      4 C4        -68.0130  167.6650  -50.4990 ca        1 787      0.050000
      5 C5        -67.9270  167.6370  -49.0420 ca        1 787     -0.270000
      6 C6        -67.9890  168.7650  -48.2790 ca        1 787     -0.091000
      7 C7        -67.9590  166.5940  -51.3170 c2        1 787     -0.817000
      8 P8        295.1920 -712.8410  227.5950 p3        1 787      2.361000
      9 P9        -67.7870  164.8720  -51.1970 p5        1 787      1.673500
     10 O11       -69.0310  164.3100  -51.8830 o         1 787     -0.994833
     11 O12       -66.5240  164.5510  -51.9950 o         1 787     -0.994833
     12 O13       -67.6810  164.4430  -49.7400 o         1 787     -0.994833
     13 O14       294.1970 -711.9700  228.2460 o         1 787     -1.120000
     14 O15       294.7520 -713.8890  226.6560 o         1 787     -1.120000
     15 O16       296.6270 -712.6630  227.8810 o         1 787     -1.120000
     16 H1        -68.1890  170.9490  -48.2110 ha        1 787      0.030000
     17 H2        -68.3530  171.1300  -50.7020 ha        1 787      0.011500
     18 H3        -68.2470  169.1210  -52.1240 ha        1 787      0.095500
     19 H5        -67.8080  166.6420  -48.5850 ha        1 787      0.095500
     20 H6        -67.9180  168.6880  -47.1810 ha        1 787      0.011500
     21 H7        -68.0440  166.8320  -52.3960 ha        1 787      0.049000
@<TRIPOS>BOND
     1    1    2 1   
     2    1    6 1   
     3    1   16 1   
     4    2    3 1   
     5    2   17 1   
     6    3    4 1   
     7    3   18 1   
     8    4    5 1   
     9    4    7 1   
    10    5    6 1   
    11    5   19 1   
    12    6   20 1   
    13    7    9 1   
    14    7   21 1   
    15    8   13 1   
    16    8   14 1   
    17    8   15 1   
    18    9   10 1   
    19    9   11 1   
    20    9   12 1   
@<TRIPOS>SUBSTRUCTURE
     1 787         1 TEMP              0 ****  ****    0 ROOT
