@<TRIPOS>MOLECULE
787
   21    18     1     0     0
SMALL
bcc


@<TRIPOS>ATOM
      1 C1         -1.6630    0.0020   -2.4590 c1        1 787     -0.165500
      2 C2         -0.2790   -0.0450   -2.3930 c1        1 787     -0.165500
      3 C3          0.3570   -0.0300   -1.1620 c1        1 787     -0.165500
      4 C4         -0.3910    0.0320    0.0040 c1        1 787      0.076900
      5 C5         -1.7740    0.0780   -0.0620 c1        1 787     -0.264500
      6 C6         -2.4110    0.0630   -1.2930 c1        1 787     -0.165500
      7 C7          0.3030    0.0320    1.3480 c3        1 787      0.011000
      8 P8          1.2490   -1.5060    1.5410 p5        1 787      1.130200
      9 P9          1.4300    1.4520    1.4470 p5        1 787      1.130200
     10 O11         2.4290    1.2250    2.5560 o         1 787     -0.897667
     11 O12         2.1610    1.6080    0.1350 o         1 787     -0.897667
     12 O13         0.6370    2.7050    1.7330 o         1 787     -0.897667
     13 O14         0.2990   -2.6550    1.7770 o         1 787     -0.897667
     14 O15         2.0500   -1.7650    0.2880 o         1 787     -0.897667
     15 O16         2.1850   -1.3770    2.7190 o         1 787     -0.897667
     16 H1         -2.1110    0.0030   -3.3260 ha        1 787     -0.009250
     17 H2          0.2470   -0.0880   -3.2140 ha        1 787     -0.009250
     18 H3          1.3320   -0.0490   -1.1160 ha        1 787     -0.009250
     19 H5         -2.3010    0.1240    0.7590 ha        1 787     -0.006500
     20 H6         -3.3850    0.0960   -1.3400 ha        1 787     -0.009250
     21 H7         -0.3640    0.0950    2.0580 hc        1 787      0.009700
@<TRIPOS>BOND
     1    1    6 3   
     2    1   16 1   
     3    2    3 3   
     4    2   17 1   
     5    3   18 1   
     6    4    5 3   
     7    4    7 1   
     8    5   19 1   
     9    6   20 1   
    10    7    8 1   
    11    7    9 1   
    12    7   21 1   
    13    8   13 1   
    14    8   14 1   
    15    8   15 1   
    16    9   10 1   
    17    9   11 1   
    18    9   12 1   
@<TRIPOS>SUBSTRUCTURE
     1 787         1 TEMP              0 ****  ****    0 ROOT
