@<TRIPOS>MOLECULE
788
   50    54     1     0     0
SMALL
bcc


@<TRIPOS>ATOM
      1 O23         0.2340   -0.8910    0.1330 o         1 788     -0.428100
      2 C14         1.4170   -0.6210   -0.0320 c         1 788      0.570700
      3 N15         2.2220   -0.3790    1.2310 ny        1 788     -0.678800
      4 C16         1.3720   -0.0870    2.4340 c3        1 788      0.177100
      5 C17         2.2210    0.1180    3.6390 ca        1 788     -0.193300
      6 C22         2.6950    1.3990    3.9510 ca        1 788     -0.101000
      7 C21         3.4540    1.5960    5.1030 ca        1 788     -0.119000
      8 C20         3.7410    0.5190    5.9450 ca        1 788     -0.077000
      9 C19         3.2670   -0.7570    5.6350 ca        1 788     -0.119000
     10 C18         2.5070   -0.9610    4.4850 ca        1 788     -0.101000
     11 C3          2.1440   -0.4840   -1.2910 ca        1 788     -0.209600
     12 C2          3.5490   -0.5600   -1.3830 ca        1 788     -0.110000
     13 C4          1.3720   -0.2940   -2.4420 ca        1 788     -0.035000
     14 C5          1.9960   -0.1520   -3.6950 ca        1 788     -0.080600
     15 N10         1.2860    0.0550   -4.8790 na        1 788     -0.088200
     16 C11        -0.0680    0.1940   -5.2350 cc        1 788      0.408400
     17 C25        -1.2200    0.0950   -4.3440 ca        1 788     -0.140900
     18 C30        -2.0060    1.2310   -4.1140 ca        1 788     -0.098500
     19 C29        -3.1450    1.1300   -3.3170 ca        1 788     -0.130500
     20 C28        -3.5060   -0.0970   -2.7600 ca        1 788     -0.101000
     21 C27        -2.7270   -1.2300   -2.9990 ca        1 788     -0.130500
     22 C26        -1.5850   -1.1410   -3.7920 ca        1 788     -0.098500
     23 N12        -0.1160    0.4350   -6.5930 nd        1 788     -0.322700
     24 N13         1.0850    0.4530   -7.1040 nd        1 788     -0.005000
     25 C9          2.0000    0.2260   -6.1100 cc        1 788     -0.237600
     26 C8          3.4580    0.1430   -6.1100 cc        1 788      0.579600
     27 C24         4.1290    0.3090   -7.4300 c3        1 788     -0.169400
     28 N7          4.1280   -0.0680   -4.9950 nd        1 788     -0.687000
     29 C6          3.4350   -0.2110   -3.7960 ca        1 788      0.457600
     30 C1          4.1770   -0.4290   -2.6030 ca        1 788     -0.147300
     31 H15         2.7910   -1.2130    1.4210 hn        1 788      0.456800
     32 H161        0.6640   -0.9560    2.5720 hx        1 788      0.115700
     33 H162        0.7610    0.8320    2.2000 hx        1 788      0.115700
     34 H22         2.4530    2.2540    3.3020 ha        1 788      0.139500
     35 H18         2.1190   -1.9650    4.2560 ha        1 788      0.139500
     36 H21         3.8200    2.6040    5.3530 ha        1 788      0.160000
     37 H20         4.3380    0.6780    6.8580 ha        1 788      0.161000
     38 H19         3.4860   -1.6040    6.3050 ha        1 788      0.160000
     39 H2          4.1740   -0.7490   -0.4970 ha        1 788      0.130000
     40 H4          0.2680   -0.2590   -2.3640 ha        1 788      0.188000
     41 H1          5.2790   -0.4950   -2.6680 ha        1 788      0.185000
     42 H30        -1.7360    2.1930   -4.5780 ha        1 788      0.148500
     43 H26        -0.9890   -2.0400   -4.0070 ha        1 788      0.148500
     44 H29        -3.7690    2.0200   -3.1420 ha        1 788      0.148500
     45 H28        -4.4140   -0.1750   -2.1420 ha        1 788      0.148000
     46 H27        -3.0230   -2.2020   -2.5760 ha        1 788      0.148500
     47 H241        3.7590   -0.4830   -8.1290 hc        1 788      0.088033
     48 H242        3.8560    1.3100   -7.8540 hc        1 788      0.088033
     49 H243        5.2420    0.2370   -7.3510 hc        1 788      0.088033
     50 H152        2.8620    0.4070    1.0720 hn        1 788      0.456800
@<TRIPOS>BOND
     1    1    2 2   
     2    2    3 1   
     3    2   11 1   
     4    3    4 1   
     5    3   31 1   
     6    3   50 1   
     7    4    5 1   
     8    4   32 1   
     9    4   33 1   
    10    5    6 ar  
    11    5   10 ar  
    12    6    7 ar  
    13    6   34 1   
    14    7    8 ar  
    15    7   36 1   
    16    8    9 ar  
    17    8   37 1   
    18    9   10 ar  
    19    9   38 1   
    20   10   35 1   
    21   11   12 ar  
    22   11   13 ar  
    23   12   30 ar  
    24   12   39 1   
    25   13   14 ar  
    26   13   40 1   
    27   14   15 1   
    28   14   29 ar  
    29   15   16 1   
    30   15   25 1   
    31   16   17 1   
    32   16   23 2   
    33   17   18 ar  
    34   17   22 ar  
    35   18   19 ar  
    36   18   42 1   
    37   19   20 ar  
    38   19   44 1   
    39   20   21 ar  
    40   20   45 1   
    41   21   22 ar  
    42   21   46 1   
    43   22   43 1   
    44   23   24 1   
    45   24   25 2   
    46   25   26 1   
    47   26   27 1   
    48   26   28 2   
    49   27   47 1   
    50   27   48 1   
    51   27   49 1   
    52   28   29 1   
    53   29   30 ar  
    54   30   41 1   
@<TRIPOS>SUBSTRUCTURE
     1 788         1 TEMP              0 ****  ****    0 ROOT
