@<TRIPOS>MOLECULE
788
   50    54     1     0     0
SMALL
bcc


@<TRIPOS>ATOM
      1 O23         0.2340   -0.8930    0.1320 o         1 788     -0.428100
      2 C14         1.4170   -0.6200   -0.0310 c         1 788      0.570700
      3 N15         2.2200   -0.3760    1.2320 n4        1 788     -0.678800
      4 C16         1.3670   -0.0860    2.4340 c3        1 788      0.177100
      5 C17         2.2140    0.1210    3.6410 ca        1 788     -0.193300
      6 C22         2.6820    1.4030    3.9540 ca        1 788     -0.101000
      7 C21         3.4390    1.6030    5.1060 ca        1 788     -0.119000
      8 C20         3.7300    0.5270    5.9480 ca        1 788     -0.077000
      9 C19         3.2610   -0.7510    5.6380 ca        1 788     -0.119000
     10 C18         2.5030   -0.9570    4.4860 ca        1 788     -0.101000
     11 C3          2.1450   -0.4820   -1.2900 ca        1 788     -0.209600
     12 C2          3.5500   -0.5540   -1.3800 ca        1 788     -0.110000
     13 C4          1.3750   -0.2940   -2.4420 ca        1 788     -0.035000
     14 C5          2.0000   -0.1510   -3.6940 ca        1 788     -0.080600
     15 N10         1.2910    0.0530   -4.8790 na        1 788     -0.088200
     16 C11        -0.0620    0.1880   -5.2370 cc        1 788      0.408400
     17 C25        -1.2160    0.0870   -4.3480 ca        1 788     -0.140900
     18 C30        -2.0050    1.2210   -4.1210 ca        1 788     -0.098500
     19 C29        -3.1460    1.1170   -3.3250 ca        1 788     -0.130500
     20 C28        -3.5040   -0.1100   -2.7670 ca        1 788     -0.101000
     21 C27        -2.7210   -1.2420   -3.0050 ca        1 788     -0.130500
     22 C26        -1.5780   -1.1490   -3.7960 ca        1 788     -0.098500
     23 N12        -0.1090    0.4300   -6.5960 nd        1 788     -0.322700
     24 N13         1.0930    0.4500   -7.1050 nd        1 788     -0.005000
     25 C9          2.0070    0.2260   -6.1090 cc        1 788     -0.237600
     26 C8          3.4640    0.1460   -6.1070 cc        1 788      0.579600
     27 C24         4.1370    0.3140   -7.4260 c3        1 788     -0.169400
     28 N7          4.1340   -0.0620   -4.9910 nd        1 788     -0.687000
     29 C6          3.4390   -0.2070   -3.7930 ca        1 788      0.457600
     30 C1          4.1800   -0.4220   -2.5990 ca        1 788     -0.147300
     31 H15         2.7900   -1.2080    1.4230 hn        1 788      0.456800
     32 H161        0.6620   -0.9580    2.5720 hx        1 788      0.115700
     33 H162        0.7540    0.8310    2.2000 hx        1 788      0.115700
     34 H22         2.4380    2.2580    3.3040 ha        1 788      0.139500
     35 H18         2.1190   -1.9630    4.2560 ha        1 788      0.139500
     36 H21         3.8020    2.6130    5.3580 ha        1 788      0.160000
     37 H20         4.3240    0.6880    6.8620 ha        1 788      0.161000
     38 H19         3.4820   -1.5980    6.3070 ha        1 788      0.160000
     39 H2          4.1750   -0.7410   -0.4930 ha        1 788      0.130000
     40 H4          0.2700   -0.2620   -2.3660 ha        1 788      0.188000
     41 H1          5.2820   -0.4860   -2.6620 ha        1 788      0.185000
     42 H30        -1.7380    2.1830   -4.5850 ha        1 788      0.148500
     43 H26        -0.9790   -2.0470   -4.0080 ha        1 788      0.148500
     44 H29        -3.7730    2.0060   -3.1520 ha        1 788      0.148500
     45 H28        -4.4130   -0.1910   -2.1510 ha        1 788      0.148000
     46 H27        -3.0150   -2.2140   -2.5810 ha        1 788      0.148500
     47 H241        5.2500    0.2440   -7.3450 hc        1 788      0.088033
     48 H242        3.8630    1.3140   -7.8510 hc        1 788      0.088033
     49 H243        3.7700   -0.4800   -8.1260 hc        1 788      0.088033
     50 H152        2.8570    0.4120    1.0740 hn        1 788      0.456800
@<TRIPOS>BOND
     1    1    2 2   
     2    2    3 1   
     3    2   11 1   
     4    3    4 1   
     5    3   31 1   
     6    3   50 1   
     7    4    5 1   
     8    4   32 1   
     9    4   33 1   
    10    5    6 ar  
    11    5   10 ar  
    12    6    7 ar  
    13    6   34 1   
    14    7    8 ar  
    15    7   36 1   
    16    8    9 ar  
    17    8   37 1   
    18    9   10 ar  
    19    9   38 1   
    20   10   35 1   
    21   11   12 ar  
    22   11   13 ar  
    23   12   30 ar  
    24   12   39 1   
    25   13   14 ar  
    26   13   40 1   
    27   14   15 1   
    28   14   29 ar  
    29   15   16 1   
    30   15   25 1   
    31   16   17 1   
    32   16   23 2   
    33   17   18 ar  
    34   17   22 ar  
    35   18   19 ar  
    36   18   42 1   
    37   19   20 ar  
    38   19   44 1   
    39   20   21 ar  
    40   20   45 1   
    41   21   22 ar  
    42   21   46 1   
    43   22   43 1   
    44   23   24 1   
    45   24   25 2   
    46   25   26 1   
    47   26   27 1   
    48   26   28 2   
    49   27   47 1   
    50   27   48 1   
    51   27   49 1   
    52   28   29 1   
    53   29   30 ar  
    54   30   41 1   
@<TRIPOS>SUBSTRUCTURE
     1 788         1 TEMP              0 ****  ****    0 ROOT
