@<TRIPOS>MOLECULE
788
   50    54     1     0     0
SMALL
bcc


@<TRIPOS>ATOM
      1 O23         0.2380   -0.9090    0.1300 o         1 788     -0.428100
      2 C14         1.4190   -0.6300   -0.0330 c         1 788      0.570700
      3 N15         2.2210   -0.3860    1.2310 n4        1 788     -0.678800
      4 C16         1.3670   -0.0940    2.4320 c3        1 788      0.177100
      5 C17         2.2120    0.1150    3.6390 ca        1 788     -0.193300
      6 C22         2.6840    1.3970    3.9490 ca        1 788     -0.101000
      7 C21         3.4400    1.5980    5.1030 ca        1 788     -0.119000
      8 C20         3.7260    0.5230    5.9470 ca        1 788     -0.077000
      9 C19         3.2550   -0.7540    5.6400 ca        1 788     -0.119000
     10 C18         2.4980   -0.9620    4.4870 ca        1 788     -0.101000
     11 C3          2.1470   -0.4860   -1.2910 ca        1 788     -0.209600
     12 C2          3.5520   -0.5560   -1.3810 ca        1 788     -0.110000
     13 C4          1.3760   -0.2960   -2.4420 ca        1 788     -0.035000
     14 C5          2.0010   -0.1460   -3.6940 ca        1 788     -0.079600
     15 N10         1.2910    0.0610   -4.8780 na        1 788     -0.088200
     16 C11        -0.0620    0.1950   -5.2360 cc        1 788      0.408400
     17 C25        -1.2150    0.0880   -4.3470 ca        1 788     -0.140900
     18 C30        -2.0070    1.2200   -4.1150 ca        1 788     -0.098500
     19 C29        -3.1480    1.1110   -3.3200 ca        1 788     -0.130500
     20 C28        -3.5030   -0.1190   -2.7670 ca        1 788     -0.101000
     21 C27        -2.7180   -1.2480   -3.0080 ca        1 788     -0.130500
     22 C26        -1.5750   -1.1500   -3.7990 ca        1 788     -0.098500
     23 N12        -0.1100    0.4420   -6.5930 nd        1 788     -0.322700
     24 N13         1.0930    0.4660   -7.1030 nd        1 788     -0.005000
     25 C9          2.0070    0.2400   -6.1070 cc        1 788     -0.237600
     26 C8          3.4650    0.1620   -6.1060 cc        1 788      0.579600
     27 C24         4.1370    0.3360   -7.4240 c3        1 788     -0.169400
     28 N7          4.1340   -0.0500   -4.9910 nd        1 788     -0.687000
     29 C6          3.4400   -0.2000   -3.7930 ca        1 788      0.457600
     30 C1          4.1810   -0.4190   -2.6000 ca        1 788     -0.147300
     31 H15         2.7910   -1.2180    1.4230 hn        1 788      0.456800
     32 H161        0.6610   -0.9650    2.5700 hx        1 788      0.115700
     33 H162        0.7540    0.8230    2.1960 hx        1 788      0.115700
     34 H22         2.4420    2.2500    3.2970 ha        1 788      0.139500
     35 H18         2.1120   -1.9670    4.2600 ha        1 788      0.139500
     36 H21         3.8040    2.6070    5.3510 ha        1 788      0.160000
     37 H20         4.3200    0.6850    6.8620 ha        1 788      0.161000
     38 H19         3.4730   -1.6000    6.3120 ha        1 788      0.160000
     39 H2          4.1770   -0.7460   -0.4950 ha        1 788      0.131000
     40 H4          0.2710   -0.2660   -2.3660 ha        1 788      0.188000
     41 H1          5.2830   -0.4810   -2.6630 ha        1 788      0.185000
     42 H30        -1.7410    2.1840   -4.5750 ha        1 788      0.148500
     43 H26        -0.9740   -2.0470   -4.0150 ha        1 788      0.148500
     44 H29        -3.7760    1.9980   -3.1440 ha        1 788      0.148500
     45 H28        -4.4120   -0.2030   -2.1510 ha        1 788      0.148000
     46 H27        -3.0100   -2.2220   -2.5880 ha        1 788      0.148500
     47 H241        3.7720   -0.4560   -8.1270 hc        1 788      0.088033
     48 H242        3.8600    1.3370   -7.8460 hc        1 788      0.088033
     49 H243        5.2500    0.2680   -7.3440 hc        1 788      0.088033
     50 H152        2.8590    0.4020    1.0730 hn        1 788      0.456800
@<TRIPOS>BOND
     1    1    2 2   
     2    2    3 1   
     3    2   11 1   
     4    3    4 1   
     5    3   31 1   
     6    3   50 1   
     7    4    5 1   
     8    4   32 1   
     9    4   33 1   
    10    5    6 ar  
    11    5   10 ar  
    12    6    7 ar  
    13    6   34 1   
    14    7    8 ar  
    15    7   36 1   
    16    8    9 ar  
    17    8   37 1   
    18    9   10 ar  
    19    9   38 1   
    20   10   35 1   
    21   11   12 ar  
    22   11   13 ar  
    23   12   30 ar  
    24   12   39 1   
    25   13   14 ar  
    26   13   40 1   
    27   14   15 1   
    28   14   29 ar  
    29   15   16 1   
    30   15   25 1   
    31   16   17 1   
    32   16   23 2   
    33   17   18 ar  
    34   17   22 ar  
    35   18   19 ar  
    36   18   42 1   
    37   19   20 ar  
    38   19   44 1   
    39   20   21 ar  
    40   20   45 1   
    41   21   22 ar  
    42   21   46 1   
    43   22   43 1   
    44   23   24 1   
    45   24   25 2   
    46   25   26 1   
    47   26   27 1   
    48   26   28 2   
    49   27   47 1   
    50   27   48 1   
    51   27   49 1   
    52   28   29 1   
    53   29   30 ar  
    54   30   41 1   
@<TRIPOS>SUBSTRUCTURE
     1 788         1 TEMP              0 ****  ****    0 ROOT
