@<TRIPOS>MOLECULE
789
   28    25     1     0     0
SMALL
bcc


@<TRIPOS>ATOM
      1 C1         -3.2870   -0.7060   -2.8590 c1        1 789      0.086500
      2 C2         -1.8710   -0.7660   -2.8130 c1        1 789     -0.075000
      3 C3         -1.2210   -0.6540   -1.6170 c1        1 789     -0.127000
      4 C4         -2.0120   -0.4680   -0.3470 c1        1 789     -0.072000
      5 C5         -3.3790   -0.4110   -0.3980 c1        1 789     -0.061000
      6 C6         -4.0470   -0.5270   -1.6400 c1        1 789     -0.183000
      7 C10         0.3420   -0.6920   -1.1120 c2        1 789      0.305000
      8 C11         0.2670   -0.5360    0.2680 c2        1 789     -0.079000
      9 C12        -0.9670   -0.4130    0.7210 c2        1 789     -0.128000
     10 C13         1.4160    0.0950    1.0210 c2        1 789     -0.083000
     11 C15         2.4060   -0.7040    1.5710 c2        1 789     -0.052000
     12 C16         3.4790   -0.1230    2.2280 c1        1 789     -0.219000
     13 C17         3.5620    1.2560    2.3360 c1        1 789      0.086500
     14 C18         2.5720    2.0550    1.7870 c1        1 789     -0.183000
     15 C19         1.4990    1.4740    1.1290 c1        1 789     -0.068000
     16 O24         4.6370    1.8440    3.0290 oh        1 789     -0.246000
     17 O25         1.3400   -0.8260   -1.7920 o         1 789     -0.243000
     18 O26        -3.8950   -1.2020   -4.0270 oh        1 789     -0.246000
     19 BR29       -1.3900   -0.9650    2.5020 br        1 789      0.099000
     20 H2         -1.3610   -0.8860   -3.6360 ha        1 789      0.171000
     21 H5         -3.8930   -0.2910    0.4230 ha        1 789      0.152000
     22 H6         -5.0220   -0.4870   -1.6750 ha        1 789      0.147000
     23 H15         2.3480   -1.6750    1.4940 ha        1 789      0.150000
     24 H16         4.1770   -0.6860    2.6150 ha        1 789      0.138000
     25 H18         2.6300    3.0260    1.8630 ha        1 789      0.147000
     26 H19         0.8010    2.0370    0.7420 ha        1 789      0.143000
     27 H24         5.3600    1.8410    2.5110 ho        1 789      0.222000
     28 H26        -4.4900   -0.6120   -4.3250 ho        1 789      0.222000
@<TRIPOS>BOND
     1    1    6 1   
     2    1   18 1   
     3    2    3 1   
     4    2   20 1   
     5    3    7 1   
     6    4    5 1   
     7    4    9 1   
     8    5   21 1   
     9    6   22 1   
    10    7    8 1   
    11    7   17 1   
    12    8    9 1   
    13    8   10 1   
    14    9   19 1   
    15   10   11 1   
    16   10   15 1   
    17   11   12 1   
    18   11   23 1   
    19   12   24 1   
    20   13   14 1   
    21   13   16 1   
    22   14   25 1   
    23   15   26 1   
    24   16   27 1   
    25   18   28 1   
@<TRIPOS>SUBSTRUCTURE
     1 789         1 TEMP              0 ****  ****    0 ROOT
