@<TRIPOS>MOLECULE
789
   28    30     1     0     0
SMALL
bcc


@<TRIPOS>ATOM
      1 C1         -0.0350    0.1890    0.0880 ca        1 789      0.120100
      2 C2          1.3710    0.3500    0.0820 ca        1 789     -0.135000
      3 C3          2.0310    0.1970    1.2790 ca        1 789     -0.140600
      4 C4          1.3300   -0.1120    2.4830 ca        1 789     -0.083800
      5 C5         -0.0440   -0.2650    2.4740 ca        1 789     -0.066000
      6 C6         -0.7340   -0.1140    1.2620 ca        1 789     -0.142000
      7 C10         3.4830    0.3070    1.6070 c         1 789      0.583900
      8 C11         3.5760    0.0100    3.0900 cc        1 789     -0.088400
      9 C12         2.3170   -0.2110    3.5770 cd        1 789      0.010500
     10 C13         4.8460   -0.0010    3.7770 ca        1 789     -0.093800
     11 C15         5.8180    0.9660    3.4610 ca        1 789     -0.060500
     12 C16         7.0420    0.9880    4.1140 ca        1 789     -0.191500
     13 C17         7.3120    0.0160    5.0930 ca        1 789      0.140100
     14 C18         6.3640   -0.9680    5.4070 ca        1 789     -0.191500
     15 C19         5.1390   -0.9710    4.7470 ca        1 789     -0.060500
     16 O24         8.5400    0.0880    5.7080 oh        1 789     -0.494100
     17 O25         4.3970    0.5890    0.8410 o         1 789     -0.483100
     18 O26        -0.7870    0.3190   -1.0560 oh        1 789     -0.492100
     19 BR29        1.7970   -0.5510    5.3150 br        1 789     -0.026700
     20 H2          1.9110    0.5890   -0.8450 ha        1 789      0.155000
     21 H5         -0.6000   -0.5020    3.3930 ha        1 789      0.153000
     22 H6         -1.8270   -0.2310    1.2260 ha        1 789      0.158000
     23 H15         5.6050    1.7100    2.6760 ha        1 789      0.146000
     24 H16         7.8030    1.7450    3.8750 ha        1 789      0.146000
     25 H18         6.5870   -1.7320    6.1650 ha        1 789      0.146000
     26 H19         4.4020   -1.7530    4.9860 ha        1 789      0.146000
     27 H24         8.5970   -0.6360    6.3480 ho        1 789      0.421000
     28 H26        -0.1880    0.5270   -1.7880 ho        1 789      0.425000
@<TRIPOS>BOND
     1    1    2 ar  
     2    1    6 ar  
     3    1   18 1   
     4    2    3 ar  
     5    2   20 1   
     6    3    4 ar  
     7    3    7 1   
     8    4    5 ar  
     9    4    9 1   
    10    5    6 ar  
    11    5   21 1   
    12    6   22 1   
    13    7    8 1   
    14    7   17 2   
    15    8    9 2   
    16    8   10 1   
    17    9   19 1   
    18   10   11 ar  
    19   10   15 ar  
    20   11   12 ar  
    21   11   23 1   
    22   12   13 ar  
    23   12   24 1   
    24   13   14 ar  
    25   13   16 1   
    26   14   15 ar  
    27   14   25 1   
    28   15   26 1   
    29   16   27 1   
    30   18   28 1   
@<TRIPOS>SUBSTRUCTURE
     1 789         1 TEMP              0 ****  ****    0 ROOT
