@<TRIPOS>MOLECULE
789
   28    30     1     0     0
SMALL
bcc


@<TRIPOS>ATOM
      1 C1         -4.4380    0.7730    0.1440 ca        1 789      0.120100
      2 C2         -3.3070    1.6160    0.2690 ca        1 789     -0.135000
      3 C3         -2.0670    1.0330    0.1440 ca        1 789     -0.140600
      4 C4         -1.9210   -0.3650   -0.1010 ca        1 789     -0.083800
      5 C5         -3.0350   -1.1750   -0.2180 ca        1 789     -0.066000
      6 C6         -4.3070   -0.6000   -0.0950 ca        1 789     -0.142000
      7 C10        -0.7020    1.6310    0.2280 c         1 789      0.583900
      8 C11         0.2500    0.4770   -0.0150 cc        1 789     -0.088400
      9 C12        -0.4780   -0.6690   -0.1840 cd        1 789      0.010500
     10 C13         1.6800    0.6720   -0.0330 ca        1 789     -0.093800
     11 C15         2.2760    1.5450    0.8950 ca        1 789     -0.060500
     12 C16         3.6500    1.7430    0.9090 ca        1 789     -0.191500
     13 C17         4.4480    1.0680   -0.0310 ca        1 789      0.140100
     14 C18         3.8690    0.2110   -0.9770 ca        1 789     -0.191500
     15 C19         2.4910    0.0190   -0.9730 ca        1 789     -0.060500
     16 O24         5.8010    1.3010    0.0320 oh        1 789     -0.494100
     17 O25        -0.4170    2.8010    0.4570 o         1 789     -0.483100
     18 O26        -5.7200    1.2570    0.2520 oh        1 789     -0.492100
     19 BR29        0.1300   -2.3920   -0.4440 br        1 789     -0.026700
     20 H2         -3.4190    2.6930    0.4580 ha        1 789      0.155000
     21 H5         -2.9400   -2.2560   -0.4060 ha        1 789      0.153000
     22 H6         -5.2110   -1.2200   -0.1840 ha        1 789      0.158000
     23 H15         1.6400    2.0870    1.6140 ha        1 789      0.146000
     24 H16         4.1210    2.4190    1.6370 ha        1 789      0.146000
     25 H18         4.4970   -0.3040   -1.7170 ha        1 789      0.146000
     26 H19         2.0390   -0.6450   -1.7260 ha        1 789      0.146000
     27 H24         6.2270    0.7850   -0.6680 ho        1 789      0.421000
     28 H26        -5.6700    2.2110    0.4160 ho        1 789      0.425000
@<TRIPOS>BOND
     1    1    2 ar  
     2    1    6 ar  
     3    1   18 1   
     4    2    3 ar  
     5    2   20 1   
     6    3    4 ar  
     7    3    7 1   
     8    4    5 ar  
     9    4    9 1   
    10    5    6 ar  
    11    5   21 1   
    12    6   22 1   
    13    7    8 1   
    14    7   17 2   
    15    8    9 2   
    16    8   10 1   
    17    9   19 1   
    18   10   11 ar  
    19   10   15 ar  
    20   11   12 ar  
    21   11   23 1   
    22   12   13 ar  
    23   12   24 1   
    24   13   14 ar  
    25   13   16 1   
    26   14   15 ar  
    27   14   25 1   
    28   15   26 1   
    29   16   27 1   
    30   18   28 1   
@<TRIPOS>SUBSTRUCTURE
     1 789         1 TEMP              0 ****  ****    0 ROOT
