@<TRIPOS>MOLECULE
78A
   59    59     1     0     0
SMALL
bcc


@<TRIPOS>ATOM
      1 N3          3.1070   -0.7840    2.3690 n         1 78A     -0.358000
      2 C10         3.6260   -0.3980    3.6580 c3        1 78A      0.001000
      3 C11         5.0880   -0.8480    3.7770 c2        1 78A     -0.111000
      4 C16         6.0100   -0.4760    2.8040 c2        1 78A     -0.121000
      5 C15         7.3560   -0.7850    2.9670 c1        1 78A     -0.130000
      6 C14         7.7810   -1.4660    4.1030 c1        1 78A     -0.130000
      7 C13         6.8600   -1.8380    5.0760 c1        1 78A     -0.130000
      8 C12         5.5130   -1.5300    4.9130 c1        1 78A     -0.110000
      9 C2          1.5010   -0.6010    1.3260 cx        1 78A     -0.054000
     10 O1          1.8730   -0.2820    0.5680 os        1 78A     -0.240000
     11 C3          1.0490   -0.0110    0.8160 cx        1 78A     -0.055000
     12 C4          0.4400   -0.2120    0.4320 c2        1 78A      0.316000
     13 O4         -0.0480   -1.3210    0.6000 o         1 78A     -0.373000
     14 N1         -0.1350    0.6940   -0.5440 n         1 78A     -0.346000
     15 C5         -1.4570    0.4680   -1.0390 c3        1 78A      0.004000
     16 C6         -1.4930    0.7440   -2.5360 c2        1 78A      0.307000
     17 O5         -0.6700    1.4940   -3.0380 o         1 78A     -0.399000
     18 C17        -2.4250    1.3910   -0.3310 c3        1 78A     -0.107000
     19 C19        -2.7500    0.8280    1.0470 c3        1 78A     -0.157000
     20 C18        -3.6990    1.5070   -1.1430 c3        1 78A     -0.240000
     21 C20        -3.6900    1.7930    1.7860 c3        1 78A     -0.207000
     22 N2         -2.5310    0.1450   -3.3630 n         1 78A     -0.278000
     23 C7         -2.7390    0.3640   -4.9600 c3        1 78A     -0.060000
     24 C8         -3.7370    1.4380   -5.1830 c2        1 78A      0.337000
     25 O6         -4.9130    1.1430   -5.5340 o         1 78A     -0.564500
     26 C23        -3.1360   -0.8590   -5.3840 c3        1 78A     -0.151000
     27 C22        -3.8070   -1.5210   -4.1810 c3        1 78A     -0.161000
     28 C21        -3.4580   -0.6590   -2.9670 c3        1 78A     -0.025000
     29 O7         -3.3920    2.6500   -5.0880 o         1 78A     -0.564500
     30 C9          1.7620   -0.4150    1.9910 c2        1 78A      0.305000
     31 O2          1.0360    0.1540    2.7950 o         1 78A     -0.353000
     32 HN3         3.6180   -1.2980    1.8040 hn        1 78A      0.231000
     33 H101        3.0930   -0.8240    4.3660 h1        1 78A      0.109000
     34 H102        3.5750    0.5790    3.7520 h1        1 78A      0.109000
     35 H16         5.7100    0.0050    2.0030 ha        1 78A      0.133000
     36 H15         8.0060   -0.5220    2.2810 ha        1 78A      0.132000
     37 H14         8.7310   -1.6840    4.2180 ha        1 78A      0.129500
     38 H13         7.1600   -2.3200    5.8770 ha        1 78A      0.129500
     39 H12         4.8630   -1.7930    5.6000 ha        1 78A      0.140000
     40 H2          1.1980   -1.5450    1.3520 h1        1 78A      0.189000
     41 H3          0.9270    0.9160    1.1470 h1        1 78A      0.147000
     42 HN1         0.3590    1.4030   -0.8610 hn        1 78A      0.246000
     43 H5         -1.7130   -0.4650   -0.8720 h1        1 78A      0.127000
     44 H17        -2.0160    2.2820   -0.2340 hc        1 78A      0.105000
     45 H191       -3.1900   -0.0460    0.9490 hc        1 78A      0.077000
     46 H192       -1.9220    0.7210    1.5610 hc        1 78A      0.077000
     47 H181       -4.2410    0.6960   -1.0200 hc        1 78A      0.098333
     48 H182       -4.2100    2.2930   -0.8420 hc        1 78A      0.098333
     49 H183       -3.4740    1.6080   -2.0920 hc        1 78A      0.098333
     50 H201       -4.6170    1.4740    1.7070 hc        1 78A      0.066667
     51 H202       -3.4370    1.8350    2.7360 hc        1 78A      0.066667
     52 H203       -3.6180    2.6890    1.3890 hc        1 78A      0.066667
     53 H7         -1.9770    0.6940   -5.4860 h1        1 78A      0.108000
     54 H231       -2.3570   -1.3870   -5.6710 hc        1 78A      0.087000
     55 H232       -3.7780   -0.7690   -6.1240 hc        1 78A      0.087000
     56 H221       -4.7830   -1.5450   -4.3090 hc        1 78A      0.074500
     57 H222       -3.4590   -2.4330   -4.0590 hc        1 78A      0.074500
     58 H211       -3.1260   -1.2240   -2.2350 h1        1 78A      0.073500
     59 H212       -4.2450   -0.1510   -2.6740 h1        1 78A      0.073500
@<TRIPOS>BOND
     1    1    2 1   
     2    1   30 1   
     3    1   32 1   
     4    2    3 1   
     5    2   33 1   
     6    2   34 1   
     7    3    4 1   
     8    3    8 1   
     9    4    5 1   
    10    4   35 1   
    11    5   36 1   
    12    6    7 1   
    13    6   37 1   
    14    7   38 1   
    15    8   39 1   
    16    9   10 1   
    17    9   11 1   
    18    9   30 1   
    19    9   40 1   
    20   10   11 1   
    21   11   12 1   
    22   11   41 1   
    23   12   13 1   
    24   12   14 1   
    25   14   15 1   
    26   14   42 1   
    27   15   16 1   
    28   15   18 1   
    29   15   43 1   
    30   16   17 1   
    31   16   22 1   
    32   18   19 1   
    33   18   20 1   
    34   18   44 1   
    35   19   21 1   
    36   19   45 1   
    37   19   46 1   
    38   20   47 1   
    39   20   48 1   
    40   20   49 1   
    41   21   50 1   
    42   21   51 1   
    43   21   52 1   
    44   22   23 1   
    45   22   28 1   
    46   23   24 1   
    47   23   26 1   
    48   23   53 1   
    49   24   25 1   
    50   24   29 1   
    51   26   27 1   
    52   26   54 1   
    53   26   55 1   
    54   27   28 1   
    55   27   56 1   
    56   27   57 1   
    57   28   58 1   
    58   28   59 1   
    59   30   31 1   
@<TRIPOS>SUBSTRUCTURE
     1 78A         1 TEMP              0 ****  ****    0 ROOT
