@<TRIPOS>MOLECULE
78A
   61    63     1     0     0
SMALL
bcc


@<TRIPOS>ATOM
      1 N3         -0.2770    0.4520    1.0290 ny        1 78A     -0.674800
      2 C10         1.2050    0.3610    1.2330 c3        1 78A      0.177100
      3 C11         1.6510    1.2640    2.3300 ca        1 78A     -0.181300
      4 C16         1.8690    2.6220    2.0690 ca        1 78A     -0.098500
      5 C15         2.3300    3.4590    3.0830 ca        1 78A     -0.120000
      6 C14         2.5770    2.9430    4.3570 ca        1 78A     -0.081000
      7 C13         2.3610    1.5880    4.6170 ca        1 78A     -0.120000
      8 C12         1.8970    0.7470    3.6070 ca        1 78A     -0.098500
      9 C2         -2.2400   -0.2120   -0.3670 cx        1 78A     -0.025900
     10 O1         -2.8190   -1.0280   -1.3840 os        1 78A     -0.281600
     11 C3         -3.1690   -1.3410   -0.0300 cx        1 78A      0.018100
     12 C4         -4.5420   -0.9120    0.4410 c         1 78A      0.645100
     13 O4         -5.1430    0.0250   -0.1100 o         1 78A     -0.546100
     14 N1         -4.9770   -1.4930    1.6230 ns        1 78A     -0.543900
     15 C5         -6.2880   -1.1850    2.1550 c3        1 78A      0.016700
     16 C6         -6.1970   -0.7580    3.6400 c         1 78A      0.637100
     17 O5         -6.9100   -1.2970    4.5000 o         1 78A     -0.538100
     18 C17        -7.3150   -2.3350    2.0100 c3        1 78A     -0.078700
     19 C19        -6.7780   -3.6630    2.5230 c3        1 78A     -0.077400
     20 C18        -7.7620   -2.4370    0.5680 c3        1 78A     -0.100100
     21 C20        -7.8890   -4.6250    2.8620 c3        1 78A     -0.094100
     22 N2         -5.2730    0.2190    4.0450 n         1 78A     -0.473800
     23 C7         -4.7200    1.2130    3.1400 c3        1 78A      0.017700
     24 C8         -3.2720    0.9440    2.7570 c         1 78A      0.657100
     25 O6         -2.6260    1.5890    1.9150 o         1 78A     -0.597000
     26 C23        -4.7930    2.5930    3.8460 c3        1 78A     -0.086400
     27 C22        -5.1490    2.3040    5.2980 c3        1 78A     -0.102400
     28 C21        -5.4200    0.7950    5.3850 c3        1 78A      0.060000
     29 O7         -2.5210   -0.0760    3.2630 oh        1 78A     -0.629100
     30 C9         -0.7750   -0.3660   -0.1320 c         1 78A      0.547100
     31 O2          0.0260   -1.0500   -0.7470 o         1 78A     -0.385100
     32 HN3        -0.5500    1.4380    0.8820 hn        1 78A      0.480800
     33 H101        1.4520   -0.7160    1.4600 hx        1 78A      0.110700
     34 H102        1.7000    0.6380    0.2570 hx        1 78A      0.110700
     35 H16         1.6940    3.0290    1.0610 ha        1 78A      0.138000
     36 H15         2.5080    4.5260    2.8760 ha        1 78A      0.157500
     37 H14         2.9490    3.6040    5.1560 ha        1 78A      0.158000
     38 H13         2.5650    1.1800    5.6200 ha        1 78A      0.157500
     39 H12         1.7410   -0.3230    3.8140 ha        1 78A      0.138000
     40 H2         -2.6130    0.8420   -0.3580 h1        1 78A      0.175700
     41 H3         -2.7960   -2.3290    0.3070 h1        1 78A      0.128700
     42 HN1        -2.9970   -0.5560    3.9590 ho        1 78A      0.478000
     43 H5         -6.7120   -0.2930    1.5910 h1        1 78A      0.110700
     44 H17        -8.2030   -2.0470    2.6450 hc        1 78A      0.095700
     45 H191       -6.1100   -4.1310    1.7510 hc        1 78A      0.035200
     46 H192       -6.1670   -3.4790    3.4470 hc        1 78A      0.035200
     47 H181       -8.2080   -1.4730    0.2230 hc        1 78A      0.047033
     48 H182       -6.9070   -2.6920   -0.1030 hc        1 78A      0.047033
     49 H183       -8.5360   -3.2370    0.4680 hc        1 78A      0.047033
     50 H201       -7.4600   -5.5870    3.2340 hc        1 78A      0.045700
     51 H202       -8.5180   -4.8430    1.9650 hc        1 78A      0.045700
     52 H203       -8.5470   -4.2010    3.6600 hc        1 78A      0.045700
     53 H7         -5.2840    1.2490    2.1580 h1        1 78A      0.116700
     54 H231       -5.5840    3.2130    3.3530 hc        1 78A      0.077200
     55 H232       -3.8250    3.1420    3.7550 hc        1 78A      0.077200
     56 H221       -6.0550    2.8820    5.6090 hc        1 78A      0.071700
     57 H222       -4.3130    2.5880    5.9830 hc        1 78A      0.071700
     58 H211       -6.4490    0.5890    5.7940 h1        1 78A      0.076700
     59 H212       -4.6740    0.2910    6.0590 h1        1 78A      0.076700
     60 H32        -0.7790    0.1540    1.8850 hn        1 78A      0.480800
     61 H121       -4.6410   -2.4070    1.8390 hn        1 78A      0.320500
@<TRIPOS>BOND
     1    1    2 1   
     2    1   30 1   
     3    1   32 1   
     4    1   60 1   
     5    2    3 1   
     6    2   33 1   
     7    2   34 1   
     8    3    4 ar  
     9    3    8 ar  
    10    4    5 ar  
    11    4   35 1   
    12    5    6 ar  
    13    5   36 1   
    14    6    7 ar  
    15    6   37 1   
    16    7    8 ar  
    17    7   38 1   
    18    8   39 1   
    19    9   10 1   
    20    9   11 1   
    21    9   30 1   
    22    9   40 1   
    23   10   11 1   
    24   11   12 1   
    25   11   41 1   
    26   12   13 2   
    27   12   14 1   
    28   14   15 1   
    29   14   61 1   
    30   15   16 1   
    31   15   18 1   
    32   15   43 1   
    33   16   17 2   
    34   16   22 1   
    35   18   19 1   
    36   18   20 1   
    37   18   44 1   
    38   19   21 1   
    39   19   45 1   
    40   19   46 1   
    41   20   47 1   
    42   20   48 1   
    43   20   49 1   
    44   21   50 1   
    45   21   51 1   
    46   21   52 1   
    47   22   23 1   
    48   22   28 1   
    49   23   24 1   
    50   23   26 1   
    51   23   53 1   
    52   24   25 2   
    53   24   29 1   
    54   26   27 1   
    55   26   54 1   
    56   26   55 1   
    57   27   28 1   
    58   27   56 1   
    59   27   57 1   
    60   28   58 1   
    61   28   59 1   
    62   29   42 1   
    63   30   31 2   
@<TRIPOS>SUBSTRUCTURE
     1 78A         1 TEMP              0 ****  ****    0 ROOT
