@<TRIPOS>MOLECULE
78A
   61    63     1     0     0
SMALL
bcc


@<TRIPOS>ATOM
      1 N3         -0.6810    1.0250    1.0300 n4        1 78A     -0.679800
      2 C10         0.7370    1.5070    0.8740 c3        1 78A      0.184100
      3 C11         1.5460    1.2790    2.1030 ca        1 78A     -0.186300
      4 C16         1.6530    2.2880    3.0680 ca        1 78A     -0.093000
      5 C15         2.4540    2.0920    4.1910 ca        1 78A     -0.125000
      6 C14         3.1490    0.8920    4.3550 ca        1 78A     -0.080000
      7 C13         3.0410   -0.1160    3.3940 ca        1 78A     -0.125000
      8 C12         2.2410    0.0740    2.2700 ca        1 78A     -0.093000
      9 C2         -2.3400   -0.4490   -0.1780 cx        1 78A     -0.057900
     10 O1         -2.4100   -1.0780   -1.4640 os        1 78A     -0.292600
     11 C3         -2.9210   -1.8230   -0.3550 cx        1 78A      0.029100
     12 C4         -4.4330   -1.9080   -0.2700 c         1 78A      0.663100
     13 O4         -5.1500   -1.8000   -1.2680 o         1 78A     -0.482100
     14 N1         -4.9440   -2.1210    1.0150 n         1 78A     -0.547900
     15 C5         -6.1100   -1.3790    1.4440 c3        1 78A      0.064700
     16 C6         -5.6460    0.0700    1.7810 c         1 78A      0.631100
     17 O5         -5.1130    0.7060    0.8300 o         1 78A     -0.696100
     18 C17        -6.9530   -2.1290    2.4900 c3        1 78A     -0.064700
     19 C19        -6.1260   -2.8980    3.5120 c3        1 78A     -0.083400
     20 C18        -7.8890   -3.0780    1.7580 c3        1 78A     -0.099100
     21 C20        -6.9170   -3.2160    4.7570 c3        1 78A     -0.099100
     22 N2         -5.6320    0.6990    3.0000 n         1 78A     -0.450800
     23 C7         -4.9770    2.0090    3.0990 c3        1 78A      0.030700
     24 C8         -3.5490    1.9470    2.5750 c         1 78A      0.658100
     25 O6         -2.5360    1.5400    3.1540 o         1 78A     -0.556000
     26 C23        -5.0200    2.4350    4.5800 c3        1 78A     -0.083400
     27 C22        -5.9770    1.4680    5.2660 c3        1 78A     -0.091400
     28 C21        -6.3340    0.3870    4.2310 c3        1 78A      0.088000
     29 O7         -3.2750    2.3560    1.3030 oh        1 78A     -0.646100
     30 C9         -0.9550   -0.2900    0.3570 c         1 78A      0.554100
     31 O2         -0.0530   -1.1150    0.3070 o         1 78A     -0.408100
     32 HN3        -0.8990    0.9250    2.0410 hn        1 78A      0.484800
     33 H101        0.6830    2.6100    0.6390 hx        1 78A      0.108200
     34 H102        1.1970    0.9700   -0.0050 hx        1 78A      0.108200
     35 H16         1.1160    3.2410    2.9380 ha        1 78A      0.144000
     36 H15         2.5430    2.8880    4.9470 ha        1 78A      0.155500
     37 H14         3.7860    0.7420    5.2410 ha        1 78A      0.156000
     38 H13         3.5930   -1.0610    3.5210 ha        1 78A      0.155500
     39 H12         2.1570   -0.7190    1.5090 ha        1 78A      0.144000
     40 H2         -3.0290    0.4230   -0.0560 h1        1 78A      0.165700
     41 H3         -2.3520   -2.7430   -0.1150 h1        1 78A      0.143700
     42 HN1        -4.0930    2.5460    0.8080 ho        1 78A      0.490000
     43 H5         -6.7710   -1.2250    0.5260 h1        1 78A      0.128700
     44 H17        -7.5900   -1.3670    3.0190 hc        1 78A      0.060700
     45 H191       -5.7660   -3.8580    3.0530 hc        1 78A      0.042200
     46 H192       -5.2150   -2.3070    3.7970 hc        1 78A      0.042200
     47 H181       -8.5120   -3.6400    2.4960 hc        1 78A      0.052700
     48 H182       -7.3110   -3.8140    1.1490 hc        1 78A      0.052700
     49 H183       -8.5720   -2.5120    1.0790 hc        1 78A      0.052700
     50 H201       -7.7780   -3.8860    4.5210 hc        1 78A      0.044033
     51 H202       -6.2640   -3.7350    5.5010 hc        1 78A      0.044033
     52 H203       -7.3190   -2.2860    5.2280 hc        1 78A      0.044033
     53 H7         -5.5410    2.7540    2.4600 h1        1 78A      0.086700
     54 H231       -3.9980    2.3730    5.0340 hc        1 78A      0.080200
     55 H232       -5.3780    3.4900    4.6610 hc        1 78A      0.080200
     56 H221       -5.4990    1.0020    6.1630 hc        1 78A      0.074200
     57 H222       -6.9030    1.9950    5.6050 hc        1 78A      0.074200
     58 H211       -7.4460    0.3840    4.0470 h1        1 78A      0.068700
     59 H212       -6.0240   -0.6280    4.6030 h1        1 78A      0.068700
     60 H32        -1.3320    1.7320    0.6570 hn        1 78A      0.484800
     61 H121       -4.2960   -2.3540    1.7330 hn        1 78A      0.302500
@<TRIPOS>BOND
     1    1    2 1   
     2    1   30 1   
     3    1   32 1   
     4    1   60 1   
     5    2    3 1   
     6    2   33 1   
     7    2   34 1   
     8    3    4 ar  
     9    3    8 ar  
    10    4    5 ar  
    11    4   35 1   
    12    5    6 ar  
    13    5   36 1   
    14    6    7 ar  
    15    6   37 1   
    16    7    8 ar  
    17    7   38 1   
    18    8   39 1   
    19    9   10 1   
    20    9   11 1   
    21    9   30 1   
    22    9   40 1   
    23   10   11 1   
    24   11   12 1   
    25   11   41 1   
    26   12   13 2   
    27   12   14 1   
    28   14   15 1   
    29   14   61 1   
    30   15   16 1   
    31   15   18 1   
    32   15   43 1   
    33   16   17 2   
    34   16   22 1   
    35   18   19 1   
    36   18   20 1   
    37   18   44 1   
    38   19   21 1   
    39   19   45 1   
    40   19   46 1   
    41   20   47 1   
    42   20   48 1   
    43   20   49 1   
    44   21   50 1   
    45   21   51 1   
    46   21   52 1   
    47   22   23 1   
    48   22   28 1   
    49   23   24 1   
    50   23   26 1   
    51   23   53 1   
    52   24   25 2   
    53   24   29 1   
    54   26   27 1   
    55   26   54 1   
    56   26   55 1   
    57   27   28 1   
    58   27   56 1   
    59   27   57 1   
    60   28   58 1   
    61   28   59 1   
    62   29   42 1   
    63   30   31 2   
@<TRIPOS>SUBSTRUCTURE
     1 78A         1 TEMP              0 ****  ****    0 ROOT
