@<TRIPOS>MOLECULE
78A
   59    61     1     0     0
SMALL
bcc


@<TRIPOS>ATOM
      1 N3          4.3510   -0.1700   -0.4390 n         1 78A     -0.548900
      2 C10         5.7310    0.0380   -0.0880 c3        1 78A      0.128300
      3 C11         6.3230    1.3350   -0.5660 ca        1 78A     -0.124300
      4 C16         7.2780    1.3480   -1.5850 ca        1 78A     -0.115000
      5 C15         7.8400    2.5550   -2.0010 ca        1 78A     -0.134000
      6 C14         7.4470    3.7520   -1.4030 ca        1 78A     -0.127000
      7 C13         6.4910    3.7420   -0.3870 ca        1 78A     -0.134000
      8 C12         5.9300    2.5380    0.0330 ca        1 78A     -0.115000
      9 C2          1.9130    0.1520   -0.1410 cx        1 78A     -0.014900
     10 O1          1.7530   -0.1270   -1.5420 os        1 78A     -0.379600
     11 C3          1.3880   -1.1600   -0.6160 cx        1 78A      0.017100
     12 C4         -0.0800   -1.5300   -0.5940 c         1 78A      0.669100
     13 O4         -0.5090   -2.3340   -1.4470 o         1 78A     -0.605100
     14 N1         -0.8370   -1.0300    0.4310 n         1 78A     -0.521900
     15 C5         -2.2780   -1.1620    0.4800 c3        1 78A      0.016700
     16 C6         -2.9730    0.2210    0.3080 c         1 78A      0.664100
     17 O5         -2.3930    1.2490    0.7210 o         1 78A     -0.632100
     18 C17        -2.7980   -1.7420    1.8180 c3        1 78A     -0.088700
     19 C19        -2.1900   -1.0470    3.0280 c3        1 78A     -0.069400
     20 C18        -2.5650   -3.2350    1.8630 c3        1 78A     -0.082100
     21 C20        -3.1110   -1.1200    4.2200 c3        1 78A     -0.103100
     22 N2         -4.1790    0.2820   -0.3540 n         1 78A     -0.420800
     23 C7         -5.2200    1.2390    0.0440 c3        1 78A     -0.038300
     24 C8         -5.7460    1.0880    1.5140 c         1 78A      0.912600
     25 O6         -6.4880    2.0190    1.9270 o         1 78A     -0.833800
     26 C23        -6.3990    0.9770   -0.9160 c3        1 78A     -0.071400
     27 C22        -6.1980   -0.4410   -1.4460 c3        1 78A     -0.080400
     28 C21        -4.8010   -0.8800   -0.9690 c3        1 78A      0.081000
     29 O7         -5.4370    0.0600    2.1800 o         1 78A     -0.833800
     30 C9          3.3220    0.2660    0.3800 c         1 78A      0.659100
     31 O2          3.5270    0.6890    1.5340 o         1 78A     -0.592100
     32 HN3         4.1450   -0.2640   -1.4090 hn        1 78A      0.318500
     33 H101        5.8190   -0.0010    1.0380 h1        1 78A      0.067700
     34 H102        6.3180   -0.8230   -0.5220 h1        1 78A      0.067700
     35 H16         7.5890    0.4060   -2.0610 ha        1 78A      0.142000
     36 H15         8.5920    2.5620   -2.8030 ha        1 78A      0.130500
     37 H14         7.8880    4.7030   -1.7340 ha        1 78A      0.128000
     38 H13         6.1770    4.6860    0.0840 ha        1 78A      0.130500
     39 H12         5.1730    2.5190    0.8360 ha        1 78A      0.142000
     40 H2          1.2460    0.9460    0.2560 h1        1 78A      0.143700
     41 H3          2.0460   -2.0540   -0.6470 h1        1 78A      0.115700
     42 HN1        -0.4620   -0.3090    1.0090 hn        1 78A      0.326500
     43 H5         -2.5800   -1.8630   -0.3540 h1        1 78A      0.089700
     44 H17        -3.9160   -1.5360    1.8350 hc        1 78A      0.133700
     45 H191       -2.0190    0.0370    2.7810 hc        1 78A      0.037200
     46 H192       -1.1970   -1.5050    3.2750 hc        1 78A      0.037200
     47 H181       -1.4760   -3.4750    1.8120 hc        1 78A      0.026367
     48 H182       -2.9740   -3.6520    2.8150 hc        1 78A      0.026367
     49 H183       -3.0790   -3.7370    1.0070 hc        1 78A      0.026367
     50 H201       -2.6560   -0.5880    5.0900 hc        1 78A      0.041700
     51 H202       -4.0930   -0.6360    3.9700 hc        1 78A      0.041700
     52 H203       -3.2990   -2.1810    4.5150 hc        1 78A      0.041700
     53 H7         -4.8080    2.2760   -0.0730 h1        1 78A      0.072700
     54 H231       -6.3930    1.7150   -1.7540 hc        1 78A      0.046700
     55 H232       -7.3640    1.0830   -0.3620 hc        1 78A      0.046700
     56 H221       -6.2560   -0.4690   -2.5600 hc        1 78A      0.033200
     57 H222       -6.9740   -1.1340   -1.0390 hc        1 78A      0.033200
     58 H211       -4.1700   -1.2200   -1.8350 h1        1 78A      0.034200
     59 H212       -4.8960   -1.7320   -0.2390 h1        1 78A      0.034200
@<TRIPOS>BOND
     1    1    2 1   
     2    1   30 1   
     3    1   32 1   
     4    2    3 1   
     5    2   33 1   
     6    2   34 1   
     7    3    4 ar  
     8    3    8 ar  
     9    4    5 ar  
    10    4   35 1   
    11    5    6 ar  
    12    5   36 1   
    13    6    7 ar  
    14    6   37 1   
    15    7    8 ar  
    16    7   38 1   
    17    8   39 1   
    18    9   10 1   
    19    9   11 1   
    20    9   30 1   
    21    9   40 1   
    22   10   11 1   
    23   11   12 1   
    24   11   41 1   
    25   12   13 2   
    26   12   14 1   
    27   14   15 1   
    28   14   42 1   
    29   15   16 1   
    30   15   18 1   
    31   15   43 1   
    32   16   17 2   
    33   16   22 1   
    34   18   19 1   
    35   18   20 1   
    36   18   44 1   
    37   19   21 1   
    38   19   45 1   
    39   19   46 1   
    40   20   47 1   
    41   20   48 1   
    42   20   49 1   
    43   21   50 1   
    44   21   51 1   
    45   21   52 1   
    46   22   23 1   
    47   22   28 1   
    48   23   24 1   
    49   23   26 1   
    50   23   53 1   
    51   24   25 1   
    52   24   29 1   
    53   26   27 1   
    54   26   54 1   
    55   26   55 1   
    56   27   28 1   
    57   27   56 1   
    58   27   57 1   
    59   28   58 1   
    60   28   59 1   
    61   30   31 2   
@<TRIPOS>SUBSTRUCTURE
     1 78A         1 TEMP              0 ****  ****    0 ROOT
