@<TRIPOS>MOLECULE
78A
   61    63     1     0     0
SMALL
bcc


@<TRIPOS>ATOM
      1 N3         -0.4400    0.5190    0.6180 n4        1 78A     -0.689800
      2 C10         0.9910    0.9290    0.7560 c3        1 78A      0.180100
      3 C11         1.3240    1.3470    2.1480 ca        1 78A     -0.169300
      4 C16         0.6300    2.3960    2.7640 ca        1 78A     -0.099500
      5 C15         1.0040    2.8180    4.0390 ca        1 78A     -0.124500
      6 C14         2.0660    2.2000    4.6990 ca        1 78A     -0.091000
      7 C13         2.7530    1.1500    4.0880 ca        1 78A     -0.124500
      8 C12         2.3830    0.7200    2.8150 ca        1 78A     -0.099500
      9 C2         -2.1670   -0.5690   -0.8660 cx        1 78A      0.027100
     10 O1         -2.4160   -1.9100   -1.3000 os        1 78A     -0.302600
     11 C3         -2.8810   -1.5530    0.0070 cx        1 78A      0.025100
     12 C4         -4.3700   -1.4230    0.1350 c         1 78A      0.559100
     13 O4         -5.1460   -1.2030   -0.7840 o         1 78A     -0.404100
     14 N1         -4.8930   -1.5640    1.5280 n4        1 78A     -0.676800
     15 C5         -6.2440   -0.9570    1.7520 c3        1 78A      0.047500
     16 C6         -6.2630    0.1580    2.8290 c         1 78A      0.631100
     17 O5         -7.3160    0.7820    2.9770 o         1 78A     -0.479100
     18 C17        -7.3100   -2.0120    2.1230 c3        1 78A     -0.088700
     19 C19        -6.9500   -2.7810    3.3850 c3        1 78A     -0.089400
     20 C18        -7.5690   -2.9400    0.9560 c3        1 78A     -0.112100
     21 C20        -8.1700   -3.3850    4.0340 c3        1 78A     -0.098100
     22 N2         -5.0700    0.3340    3.5990 n         1 78A     -0.458800
     23 C7         -4.2460    1.4960    3.2070 c3        1 78A     -0.024300
     24 C8         -3.0480    1.1390    2.3250 c         1 78A      0.918600
     25 O6         -2.4280    2.0720    1.7370 o         1 78A     -0.864300
     26 C23        -3.7450    2.1810    4.4980 c3        1 78A     -0.069400
     27 C22        -4.5210    1.5550    5.6470 c3        1 78A     -0.093400
     28 C21        -5.2790    0.3610    5.0540 c3        1 78A      0.049000
     29 O7         -2.6560   -0.0690    2.1280 o         1 78A     -0.864300
     30 C9         -0.7250   -0.2250   -0.6320 c         1 78A      0.544100
     31 O2          0.1830   -0.4860   -1.4100 o         1 78A     -0.393100
     32 HN3        -1.0650    1.3710    0.6770 hn        1 78A      0.508300
     33 H101        1.6400    0.0620    0.4340 hx        1 78A      0.102700
     34 H102        1.1650    1.7840    0.0390 hx        1 78A      0.102700
     35 H16        -0.2180    2.8850    2.2540 ha        1 78A      0.149000
     36 H15         0.4620    3.6470    4.5200 ha        1 78A      0.151500
     37 H14         2.3650    2.5410    5.7030 ha        1 78A      0.151000
     38 H13         3.5930    0.6630    4.6080 ha        1 78A      0.151500
     39 H12         2.9340   -0.1030    2.3350 ha        1 78A      0.149000
     40 H2         -2.7170    0.2190   -1.4300 h1        1 78A      0.166700
     41 H3         -2.3570   -2.0500    0.8530 h1        1 78A      0.155700
     42 HN1        -4.9390   -2.5650    1.7510 hn        1 78A      0.500800
     43 H5         -6.5760   -0.4600    0.7850 hx        1 78A      0.137700
     44 H17        -8.2520   -1.4160    2.3210 hc        1 78A      0.117700
     45 H191       -6.2210   -3.6010    3.1450 hc        1 78A      0.041200
     46 H192       -6.4520   -2.0890    4.1170 hc        1 78A      0.041200
     47 H181       -6.7210   -3.6480    0.7960 hc        1 78A      0.054700
     48 H182       -7.7350   -2.3600    0.0150 hc        1 78A      0.054700
     49 H183       -8.4860   -3.5470    1.1590 hc        1 78A      0.054700
     50 H201       -7.8740   -3.9460    4.9540 hc        1 78A      0.052700
     51 H202       -8.6810   -4.0950    3.3380 hc        1 78A      0.052700
     52 H203       -8.8990   -2.5910    4.3250 hc        1 78A      0.052700
     53 H7         -4.8650    2.2390    2.6200 h1        1 78A      0.077700
     54 H231       -3.9240    3.2830    4.4330 hc        1 78A      0.070200
     55 H232       -2.6460    2.0190    4.6210 hc        1 78A      0.070200
     56 H221       -5.2400    2.2890    6.0900 hc        1 78A      0.067700
     57 H222       -3.8350    1.2150    6.4610 hc        1 78A      0.067700
     58 H211       -4.8670   -0.6070    5.4520 h1        1 78A      0.063200
     59 H212       -6.3710    0.4180    5.3170 h1        1 78A      0.063200
     60 H32        -0.7450   -0.0570    1.4340 hn        1 78A      0.508300
     61 H121       -4.1810   -1.1120    2.1850 hn        1 78A      0.500800
@<TRIPOS>BOND
     1    1    2 1   
     2    1   30 1   
     3    1   32 1   
     4    1   60 1   
     5    2    3 1   
     6    2   33 1   
     7    2   34 1   
     8    3    4 ar  
     9    3    8 ar  
    10    4    5 ar  
    11    4   35 1   
    12    5    6 ar  
    13    5   36 1   
    14    6    7 ar  
    15    6   37 1   
    16    7    8 ar  
    17    7   38 1   
    18    8   39 1   
    19    9   10 1   
    20    9   11 1   
    21    9   30 1   
    22    9   40 1   
    23   10   11 1   
    24   11   12 1   
    25   11   41 1   
    26   12   13 2   
    27   12   14 1   
    28   14   15 1   
    29   14   42 1   
    30   14   61 1   
    31   15   16 1   
    32   15   18 1   
    33   15   43 1   
    34   16   17 2   
    35   16   22 1   
    36   18   19 1   
    37   18   20 1   
    38   18   44 1   
    39   19   21 1   
    40   19   45 1   
    41   19   46 1   
    42   20   47 1   
    43   20   48 1   
    44   20   49 1   
    45   21   50 1   
    46   21   51 1   
    47   21   52 1   
    48   22   23 1   
    49   22   28 1   
    50   23   24 1   
    51   23   26 1   
    52   23   53 1   
    53   24   25 1   
    54   24   29 1   
    55   26   27 1   
    56   26   54 1   
    57   26   55 1   
    58   27   28 1   
    59   27   56 1   
    60   27   57 1   
    61   28   58 1   
    62   28   59 1   
    63   30   31 2   
@<TRIPOS>SUBSTRUCTURE
     1 78A         1 TEMP              0 ****  ****    0 ROOT
