@<TRIPOS>MOLECULE
78C
   36    35     1     0     0
SMALL
bcc


@<TRIPOS>ATOM
      1 O1         -2.3510    0.1390    2.0050 o         1 78C     -0.258000
      2 C2         -1.1420    0.1450    2.1220 c1        1 78C      0.339000
      3 C3         -0.2020    0.0620    3.2590 c2        1 78C     -0.209000
      4 C4          0.8840    0.0180    2.2840 c3        1 78C      0.087000
      5 C11         1.5080   -1.3040    2.1950 c2        1 78C     -0.100000
      6 C12         0.7210   -2.4440    2.2180 c1        1 78C     -0.106000
      7 C13         1.3060   -3.6930    2.0820 c1        1 78C     -0.123000
      8 C14         2.6790   -3.8020    1.9220 c1        1 78C     -0.123000
      9 C15         3.4660   -2.6620    1.8990 c1        1 78C     -0.132000
     10 C16         2.8810   -1.4130    2.0360 c2        1 78C     -0.099000
     11 N1         -0.0250    0.2700    1.2090 n         1 78C     -0.352000
     12 C5          0.1090    0.5150   -0.1820 c2        1 78C      0.414000
     13 O2          1.1290    0.1920   -0.7600 o         1 78C     -0.382000
     14 O3         -0.9490    1.0970   -0.8990 os        1 78C     -0.257000
     15 C6         -0.7340    1.1460   -2.3220 c3        1 78C      0.046000
     16 C7         -2.1430    0.8310   -3.1190 c3        1 78C     -0.172500
     17 C8         -2.8240    1.9720   -3.1340 c3        1 78C     -0.156500
     18 C9         -1.7370    3.0920   -3.0580 c3        1 78C     -0.156500
     19 C10        -0.3740    2.3430   -2.6780 c3        1 78C     -0.172500
     20 H31C       -0.1010    0.7610    3.9360 ha        1 78C      0.134000
     21 H32C       -0.3540   -0.7500    3.7830 ha        1 78C      0.134000
     22 H4          1.5270    0.7420    2.4070 h1        1 78C      0.122000
     23 H12        -0.2460   -2.3680    2.3310 ha        1 78C      0.135000
     24 H16         3.4360   -0.6100    2.0190 ha        1 78C      0.137000
     25 H13         0.7510   -4.4970    2.0980 ha        1 78C      0.135500
     26 H14         3.0910   -4.6820    1.8260 ha        1 78C      0.135500
     27 H15         4.4330   -2.7380    1.7870 ha        1 78C      0.136000
     28 H6         -0.0490    0.4980   -2.5820 h1        1 78C      0.117000
     29 H71C       -1.9540    0.5390   -4.0350 hc        1 78C      0.099000
     30 H72C       -2.6520    0.1410   -2.6440 hc        1 78C      0.099000
     31 H101        0.2200    2.3030   -3.4550 hc        1 78C      0.099000
     32 H102        0.0690    2.8010   -1.9330 hc        1 78C      0.099000
     33 H81C       -3.3370    2.0520   -3.9650 hc        1 78C      0.083250
     34 H82C       -3.4200    2.0240   -2.3590 hc        1 78C      0.083250
     35 H91C       -1.6480    3.5360   -3.9250 hc        1 78C      0.083250
     36 H92C       -1.9700    3.7430   -2.3660 hc        1 78C      0.083250
@<TRIPOS>BOND
     1    1    2 1   
     2    2   11 1   
     3    3    4 1   
     4    3   20 1   
     5    3   21 1   
     6    4    5 1   
     7    4   11 1   
     8    4   22 1   
     9    5    6 1   
    10    5   10 1   
    11    6   23 1   
    12    7    8 1   
    13    7   25 1   
    14    8   26 1   
    15    9   10 1   
    16    9   27 1   
    17   10   24 1   
    18   11   12 1   
    19   12   13 1   
    20   12   14 1   
    21   14   15 1   
    22   15   16 1   
    23   15   19 1   
    24   15   28 1   
    25   16   17 1   
    26   16   29 1   
    27   16   30 1   
    28   17   18 1   
    29   17   33 1   
    30   17   34 1   
    31   18   19 1   
    32   18   35 1   
    33   18   36 1   
    34   19   31 1   
    35   19   32 1   
@<TRIPOS>SUBSTRUCTURE
     1 78C         1 TEMP              0 ****  ****    0 ROOT
