@<TRIPOS>MOLECULE
78C
   36    38     1     0     0
SMALL
bcc


@<TRIPOS>ATOM
      1 O1         -0.5820   -2.6710   -1.2760 o         1 78C     -0.533500
      2 C2          0.2750   -2.1190   -0.6080 c         1 78C      0.731500
      3 C3          1.7220   -2.4060   -0.1760 cy        1 78C     -0.180400
      4 C4          1.6900   -1.0510    0.6030 cy        1 78C      0.171000
      5 C11         2.6910   -0.0360    0.1700 ca        1 78C     -0.107300
      6 C12         3.4810    0.5970    1.1360 ca        1 78C     -0.102500
      7 C13         4.4440    1.5300    0.7520 ca        1 78C     -0.132000
      8 C14         4.6180    1.8420   -0.5960 ca        1 78C     -0.114000
      9 C15         3.8260    1.2200   -1.5620 ca        1 78C     -0.132000
     10 C16         2.8660    0.2840   -1.1810 ca        1 78C     -0.102500
     11 N1          0.3010   -0.8940    0.1120 n         1 78C     -0.523400
     12 C5         -0.6260    0.0760    0.4360 c         1 78C      0.760100
     13 O2         -0.4620    1.0200    1.2250 o         1 78C     -0.571000
     14 O3         -1.8290   -0.0790   -0.2110 os        1 78C     -0.418900
     15 C6         -2.8430    0.9070    0.0840 c3        1 78C      0.157100
     16 C7         -3.7890    0.9070   -1.1210 c3        1 78C     -0.093900
     17 C8         -5.1920    0.6440   -0.5940 c3        1 78C     -0.077900
     18 C9         -5.1210    0.6210    0.9280 c3        1 78C     -0.077900
     19 C10        -3.6560    0.4880    1.3110 c3        1 78C     -0.093900
     20 H31C        1.8220   -3.3060    0.4660 hc        1 78C      0.094700
     21 H32C        2.4420   -2.4400   -1.0210 hc        1 78C      0.094700
     22 H4          1.7060   -1.1710    1.7200 h1        1 78C      0.082700
     23 H12         3.3390    0.3670    2.2030 ha        1 78C      0.136000
     24 H16         2.2390   -0.1990   -1.9470 ha        1 78C      0.136000
     25 H13         5.0610    2.0250    1.5160 ha        1 78C      0.136000
     26 H14         5.3750    2.5810   -0.8970 ha        1 78C      0.135000
     27 H15         3.9560    1.4690   -2.6250 ha        1 78C      0.136000
     28 H6         -2.3560    1.9060    0.2350 h1        1 78C      0.077700
     29 H71C       -3.7330    1.8940   -1.6420 hc        1 78C      0.059700
     30 H72C       -3.4820    0.1160   -1.8530 hc        1 78C      0.059700
     31 H101       -3.4130   -0.5710    1.5820 hc        1 78C      0.059700
     32 H102       -3.4010    1.1320    2.1880 hc        1 78C      0.059700
     33 H81C       -5.9020    1.4340   -0.9450 hc        1 78C      0.043950
     34 H82C       -5.5690   -0.3380   -0.9780 hc        1 78C      0.043950
     35 H91C       -5.5460    1.5670    1.3490 hc        1 78C      0.043950
     36 H92C       -5.7190   -0.2270    1.3430 hc        1 78C      0.043950
@<TRIPOS>BOND
     1    1    2 2   
     2    2    3 1   
     3    2   11 1   
     4    3    4 1   
     5    3   20 1   
     6    3   21 1   
     7    4    5 1   
     8    4   11 1   
     9    4   22 1   
    10    5    6 ar  
    11    5   10 ar  
    12    6    7 ar  
    13    6   23 1   
    14    7    8 ar  
    15    7   25 1   
    16    8    9 ar  
    17    8   26 1   
    18    9   10 ar  
    19    9   27 1   
    20   10   24 1   
    21   11   12 1   
    22   12   13 2   
    23   12   14 1   
    24   14   15 1   
    25   15   16 1   
    26   15   19 1   
    27   15   28 1   
    28   16   17 1   
    29   16   29 1   
    30   16   30 1   
    31   17   18 1   
    32   17   33 1   
    33   17   34 1   
    34   18   19 1   
    35   18   35 1   
    36   18   36 1   
    37   19   31 1   
    38   19   32 1   
@<TRIPOS>SUBSTRUCTURE
     1 78C         1 TEMP              0 ****  ****    0 ROOT
