@<TRIPOS>MOLECULE
78C
   36    38     1     0     0
SMALL
bcc


@<TRIPOS>ATOM
      1 O1         -0.1910   -0.2240   -0.2090 o         1 78C     -0.533500
      2 C2          1.0240   -0.2270   -0.1070 c         1 78C      0.731500
      3 C3          2.0550   -0.2420    1.0320 cy        1 78C     -0.180400
      4 C4          3.1700   -0.2170   -0.0650 cy        1 78C      0.171000
      5 C11         4.0950   -1.3840   -0.0670 ca        1 78C     -0.107300
      6 C12         5.4770   -1.1580   -0.1040 ca        1 78C     -0.102500
      7 C13         6.3630   -2.2340   -0.0790 ca        1 78C     -0.132000
      8 C14         5.8770   -3.5410   -0.0240 ca        1 78C     -0.114000
      9 C15         4.5020   -3.7700    0.0040 ca        1 78C     -0.132000
     10 C16         3.6130   -2.6970   -0.0170 ca        1 78C     -0.102500
     11 N1          2.0750   -0.2110   -1.0620 n         1 78C     -0.523400
     12 C5          2.1560   -0.0720   -2.4330 c         1 78C      0.760100
     13 O2          3.1910    0.0820   -3.1000 o         1 78C     -0.571000
     14 O3          0.9330   -0.1160   -3.0610 os        1 78C     -0.418900
     15 C6          0.9500    0.0220   -4.4980 c3        1 78C      0.157100
     16 C7         -0.3400   -0.6390   -4.9960 c3        1 78C     -0.093900
     17 C8         -1.0890    0.3960   -5.8220 c3        1 78C     -0.077900
     18 C9         -0.2010    1.6280   -5.9410 c3        1 78C     -0.077900
     19 C10         0.8950    1.4990   -4.8960 c3        1 78C     -0.093900
     20 H31C        2.0190    0.6630    1.6740 hc        1 78C      0.094700
     21 H32C        2.0280   -1.1660    1.6480 hc        1 78C      0.094700
     22 H4          3.7470    0.7460   -0.1010 h1        1 78C      0.082700
     23 H12         5.8660   -0.1310   -0.1620 ha        1 78C      0.136000
     24 H16         2.5280   -2.8840   -0.0020 ha        1 78C      0.136000
     25 H13         7.4470   -2.0500   -0.1090 ha        1 78C      0.136000
     26 H14         6.5780   -4.3890   -0.0080 ha        1 78C      0.135000
     27 H15         4.1150   -4.8000    0.0400 ha        1 78C      0.136000
     28 H6          1.8650   -0.4810   -4.9090 h1        1 78C      0.077700
     29 H71C       -0.9580   -0.9820   -4.1270 hc        1 78C      0.059700
     30 H72C       -0.0870   -1.5390   -5.6100 hc        1 78C      0.059700
     31 H101        0.6590    2.1230   -3.9960 hc        1 78C      0.059700
     32 H102        1.8840    1.8340   -5.2940 hc        1 78C      0.059700
     33 H81C       -1.3390   -0.0100   -6.8340 hc        1 78C      0.043950
     34 H82C       -2.0540    0.6620   -5.3220 hc        1 78C      0.043950
     35 H91C        0.2460    1.6850   -6.9650 hc        1 78C      0.043950
     36 H92C       -0.7930    2.5630   -5.7820 hc        1 78C      0.043950
@<TRIPOS>BOND
     1    1    2 2   
     2    2    3 1   
     3    2   11 1   
     4    3    4 1   
     5    3   20 1   
     6    3   21 1   
     7    4    5 1   
     8    4   11 1   
     9    4   22 1   
    10    5    6 ar  
    11    5   10 ar  
    12    6    7 ar  
    13    6   23 1   
    14    7    8 ar  
    15    7   25 1   
    16    8    9 ar  
    17    8   26 1   
    18    9   10 ar  
    19    9   27 1   
    20   10   24 1   
    21   11   12 1   
    22   12   13 2   
    23   12   14 1   
    24   14   15 1   
    25   15   16 1   
    26   15   19 1   
    27   15   28 1   
    28   16   17 1   
    29   16   29 1   
    30   16   30 1   
    31   17   18 1   
    32   17   33 1   
    33   17   34 1   
    34   18   19 1   
    35   18   35 1   
    36   18   36 1   
    37   19   31 1   
    38   19   32 1   
@<TRIPOS>SUBSTRUCTURE
     1 78C         1 TEMP              0 ****  ****    0 ROOT
