@<TRIPOS>MOLECULE
78C
   36    38     1     0     0
SMALL
bcc


@<TRIPOS>ATOM
      1 O1         -0.1750   -0.1750   -0.1950 o         1 78C     -0.533500
      2 C2          1.0410   -0.1900   -0.1000 c         1 78C      0.731500
      3 C3          2.0790   -0.2030    1.0330 cy        1 78C     -0.180400
      4 C4          3.1870   -0.2020   -0.0710 cy        1 78C      0.171000
      5 C11         4.1000   -1.3800   -0.0650 ca        1 78C     -0.107300
      6 C12         5.4830   -1.1690   -0.1140 ca        1 78C     -0.102500
      7 C13         6.3580   -2.2550   -0.0820 ca        1 78C     -0.132000
      8 C14         5.8590   -3.5550   -0.0090 ca        1 78C     -0.114000
      9 C15         4.4810   -3.7690    0.0310 ca        1 78C     -0.132000
     10 C16         3.6040   -2.6870    0.0030 ca        1 78C     -0.102500
     11 N1          2.0860   -0.1970   -1.0620 n         1 78C     -0.523400
     12 C5          2.1600   -0.0740   -2.4350 c         1 78C      0.760100
     13 O2          3.1930    0.0610   -3.1090 o         1 78C     -0.571000
     14 O3          0.9330   -0.1100   -3.0540 os        1 78C     -0.418900
     15 C6          0.9420    0.0110   -4.4940 c3        1 78C      0.157100
     16 C7         -0.3590   -0.6400   -4.9760 c3        1 78C     -0.093900
     17 C8         -1.0990    0.3960   -5.8090 c3        1 78C     -0.077900
     18 C9         -0.1960    1.6150   -5.9480 c3        1 78C     -0.077900
     19 C10         0.9050    1.4830   -4.9070 c3        1 78C     -0.093900
     20 H31C        2.0460   -1.1200    1.6590 hc        1 78C      0.094700
     21 H32C        2.0560    0.7090    1.6650 hc        1 78C      0.094700
     22 H4          3.7740    0.7530   -0.1210 h1        1 78C      0.082700
     23 H12         5.8830   -0.1470   -0.1860 ha        1 78C      0.136000
     24 H16         2.5170   -2.8620    0.0270 ha        1 78C      0.136000
     25 H13         7.4440   -2.0830   -0.1210 ha        1 78C      0.136000
     26 H14         6.5500   -4.4100    0.0130 ha        1 78C      0.135000
     27 H15         4.0840   -4.7940    0.0810 ha        1 78C      0.136000
     28 H6          1.8480   -0.5090   -4.9040 h1        1 78C      0.077700
     29 H71C       -0.9760   -0.9640   -4.0990 hc        1 78C      0.059700
     30 H72C       -0.1220   -1.5490   -5.5810 hc        1 78C      0.059700
     31 H101        1.8950    1.8000   -5.3150 hc        1 78C      0.059700
     32 H102        0.6820    2.1210   -4.0140 hc        1 78C      0.059700
     33 H81C       -2.0580    0.6800   -5.3060 hc        1 78C      0.043950
     34 H82C       -1.3610   -0.0180   -6.8150 hc        1 78C      0.043950
     35 H91C       -0.7740    2.5590   -5.7970 hc        1 78C      0.043950
     36 H92C        0.2460    1.6530   -6.9750 hc        1 78C      0.043950
@<TRIPOS>BOND
     1    1    2 2   
     2    2    3 1   
     3    2   11 1   
     4    3    4 1   
     5    3   20 1   
     6    3   21 1   
     7    4    5 1   
     8    4   11 1   
     9    4   22 1   
    10    5    6 ar  
    11    5   10 ar  
    12    6    7 ar  
    13    6   23 1   
    14    7    8 ar  
    15    7   25 1   
    16    8    9 ar  
    17    8   26 1   
    18    9   10 ar  
    19    9   27 1   
    20   10   24 1   
    21   11   12 1   
    22   12   13 2   
    23   12   14 1   
    24   14   15 1   
    25   15   16 1   
    26   15   19 1   
    27   15   28 1   
    28   16   17 1   
    29   16   29 1   
    30   16   30 1   
    31   17   18 1   
    32   17   33 1   
    33   17   34 1   
    34   18   19 1   
    35   18   35 1   
    36   18   36 1   
    37   19   31 1   
    38   19   32 1   
@<TRIPOS>SUBSTRUCTURE
     1 78C         1 TEMP              0 ****  ****    0 ROOT
