@<TRIPOS>MOLECULE
78C
   36    38     1     0     0
SMALL
bcc


@<TRIPOS>ATOM
      1 O1         -0.1780   -0.1610   -0.2050 o         1 78C     -0.533500
      2 C2          1.0380   -0.1850   -0.1070 c         1 78C      0.731500
      3 C3          2.0730   -0.2060    1.0280 cy        1 78C     -0.180400
      4 C4          3.1830   -0.2120   -0.0720 cy        1 78C      0.171000
      5 C11         4.0890   -1.3960   -0.0650 ca        1 78C     -0.107300
      6 C12         5.4730   -1.1940   -0.1100 ca        1 78C     -0.102500
      7 C13         6.3410   -2.2850   -0.0760 ca        1 78C     -0.132000
      8 C14         5.8330   -3.5820   -0.0060 ca        1 78C     -0.114000
      9 C15         4.4530   -3.7880    0.0300 ca        1 78C     -0.132000
     10 C16         3.5830   -2.6990    0.0010 ca        1 78C     -0.102500
     11 N1          2.0850   -0.1980   -1.0660 n         1 78C     -0.523400
     12 C5          2.1640   -0.0740   -2.4390 c         1 78C      0.760100
     13 O2          3.2000    0.0540   -3.1100 o         1 78C     -0.571000
     14 O3          0.9390   -0.1020   -3.0620 os        1 78C     -0.418900
     15 C6          0.9530    0.0210   -4.5010 c3        1 78C      0.157100
     16 C7         -0.3500   -0.6230   -4.9870 c3        1 78C     -0.093900
     17 C8         -1.0830    0.4160   -5.8230 c3        1 78C     -0.077900
     18 C9         -0.1750    1.6320   -5.9560 c3        1 78C     -0.077900
     19 C10         0.9220    1.4950   -4.9120 c3        1 78C     -0.093900
     20 H31C        2.0320   -1.1230    1.6540 hc        1 78C      0.094700
     21 H32C        2.0540    0.7060    1.6610 hc        1 78C      0.094700
     22 H4          3.7770    0.7400   -0.1200 h1        1 78C      0.082700
     23 H12         5.8810   -0.1740   -0.1810 ha        1 78C      0.136000
     24 H16         2.4960   -2.8670    0.0220 ha        1 78C      0.136000
     25 H13         7.4280   -2.1210   -0.1130 ha        1 78C      0.136000
     26 H14         6.5180   -4.4420    0.0170 ha        1 78C      0.135000
     27 H15         4.0500   -4.8100    0.0790 ha        1 78C      0.136000
     28 H6          1.8580   -0.5010   -4.9090 h1        1 78C      0.077700
     29 H71C       -0.1150   -1.5330   -5.5930 hc        1 78C      0.059700
     30 H72C       -0.9710   -0.9450   -4.1130 hc        1 78C      0.059700
     31 H101        1.9150    1.8090   -5.3170 hc        1 78C      0.059700
     32 H102        0.7000    2.1320   -4.0190 hc        1 78C      0.059700
     33 H81C       -2.0420    0.7040   -5.3220 hc        1 78C      0.043950
     34 H82C       -1.3430    0.0050   -6.8290 hc        1 78C      0.043950
     35 H91C       -0.7500    2.5790   -5.8060 hc        1 78C      0.043950
     36 H92C        0.2710    1.6710   -6.9820 hc        1 78C      0.043950
@<TRIPOS>BOND
     1    1    2 2   
     2    2    3 1   
     3    2   11 1   
     4    3    4 1   
     5    3   20 1   
     6    3   21 1   
     7    4    5 1   
     8    4   11 1   
     9    4   22 1   
    10    5    6 ar  
    11    5   10 ar  
    12    6    7 ar  
    13    6   23 1   
    14    7    8 ar  
    15    7   25 1   
    16    8    9 ar  
    17    8   26 1   
    18    9   10 ar  
    19    9   27 1   
    20   10   24 1   
    21   11   12 1   
    22   12   13 2   
    23   12   14 1   
    24   14   15 1   
    25   15   16 1   
    26   15   19 1   
    27   15   28 1   
    28   16   17 1   
    29   16   29 1   
    30   16   30 1   
    31   17   18 1   
    32   17   33 1   
    33   17   34 1   
    34   18   19 1   
    35   18   35 1   
    36   18   36 1   
    37   19   31 1   
    38   19   32 1   
@<TRIPOS>SUBSTRUCTURE
     1 78C         1 TEMP              0 ****  ****    0 ROOT
