@<TRIPOS>MOLECULE
78H
   36    33     1     0     0
SMALL
bcc


@<TRIPOS>ATOM
      1 O4         -1.8610   -0.3060   -4.5020 o         1 78H     -0.343000
      2 C4         -0.6820   -0.2310   -4.5170 c1        1 78H      0.386000
      3 C5          0.0710   -0.1380   -3.2470 c1        1 78H     -0.293000
      4 N3          0.0180   -0.2530   -5.7550 n3        1 78H     -0.350000
      5 C9          1.5360   -0.1180   -3.2750 c1        1 78H      0.209000
      6 N5         -0.6020   -0.1790   -1.8950 n2        1 78H     -0.056000
      7 C2          1.4740   -0.2330   -5.7690 c2        1 78H      0.244000
      8 N8          2.1950    0.0040   -2.0580 n2        1 78H     -0.298000
      9 N1          2.2190   -0.2660   -4.5110 n2        1 78H     -0.302000
     10 C6          0.2560   -0.3820   -0.7060 c1        1 78H     -0.080000
     11 N2          2.1740   -0.1150   -7.0020 n3        1 78H     -0.329000
     12 C7          1.6680   -0.6760   -0.9360 c2        1 78H     -0.023000
     13 C10        -0.3820   -0.6530    0.6640 c3        1 78H     -0.010000
     14 N11        -0.2790    0.5140    1.4720 n3        1 78H     -0.286000
     15 C15        -0.7690    0.4970    2.8520 c2        1 78H     -0.002000
     16 C16        -0.6490   -0.6730    3.6270 c2        1 78H     -0.194000
     17 C17        -1.2820    1.6470    3.4110 c1        1 78H     -0.202000
     18 C18        -1.0400   -0.6700    4.9370 c1        1 78H     -0.088000
     19 C19        -1.6770    1.6530    4.7300 c1        1 78H     -0.084000
     20 C20        -1.5570    0.4840    5.5040 c1        1 78H     -0.121000
     21 C21        -2.0320    0.4740    6.9480 c2        1 78H      0.358000
     22 O22        -3.1900    0.1510    7.2120 o         1 78H     -0.567000
     23 O23        -1.2480    0.7840    7.8640 o         1 78H     -0.567000
     24 H3         -0.4260   -0.3080   -6.5080 hn        1 78H      0.243000
     25 H21N        3.1060   -0.0430   -7.0030 hn        1 78H      0.208000
     26 H22N        1.6980   -0.1340   -7.8230 hn        1 78H      0.208000
     27 H71         2.2110   -0.4700   -0.1010 h4        1 78H      0.107000
     28 H72         1.8140   -1.6400   -1.0210 h4        1 78H      0.107000
     29 H101        0.0590   -1.3600    1.0800 h1        1 78H      0.095500
     30 H102       -1.3540   -0.8920    0.5400 h1        1 78H      0.095500
     31 H11         0.0710    1.2630    1.1330 hn        1 78H      0.178000
     32 H16        -0.2770   -1.5030    3.2190 ha        1 78H      0.103000
     33 H17        -1.3640    2.4570    2.8700 ha        1 78H      0.107000
     34 H18        -0.9560   -1.4770    5.4710 ha        1 78H      0.152000
     35 H19        -1.9950    2.4490    5.1240 ha        1 78H      0.153000
     36 HN8         3.0540    0.3450   -2.0300 hn        1 78H      0.243000
@<TRIPOS>BOND
     1    1    2 1   
     2    2    4 1   
     3    3    5 1   
     4    3    6 1   
     5    4    7 1   
     6    4   24 1   
     7    5    9 1   
     8    6   10 1   
     9    7    9 1   
    10    7   11 1   
    11    8   12 1   
    12    8   36 1   
    13   10   13 1   
    14   11   25 1   
    15   11   26 1   
    16   12   27 1   
    17   12   28 1   
    18   13   14 1   
    19   13   29 1   
    20   13   30 1   
    21   14   15 1   
    22   14   31 1   
    23   15   16 1   
    24   15   17 1   
    25   16   18 1   
    26   16   32 1   
    27   17   33 1   
    28   18   34 1   
    29   19   20 1   
    30   19   35 1   
    31   20   21 1   
    32   21   22 1   
    33   21   23 1   
@<TRIPOS>SUBSTRUCTURE
     1 78H         1 TEMP              0 ****  ****    0 ROOT
