@<TRIPOS>MOLECULE
78H
   36    38     1     0     0
SMALL
bcc


@<TRIPOS>ATOM
      1 O4         -4.6680   -2.2290    1.6940 o         1 78H     -0.618500
      2 C4         -4.5780   -1.2140    0.9840 c         1 78H      0.747700
      3 C5         -3.3840   -0.4610    0.6220 cc        1 78H     -0.171600
      4 N3         -5.8070   -0.7170    0.4630 n         1 78H     -0.509400
      5 C9         -3.5200    0.7030   -0.1850 cd        1 78H      0.431600
      6 N5         -2.1420   -0.9360    1.0640 ne        1 78H     -0.485300
      7 C2         -5.8410    0.4010   -0.3750 cc        1 78H      0.690800
      8 N8         -2.4090    1.4670   -0.4680 nh        1 78H     -0.745000
      9 N1         -4.7540    1.1350   -0.6850 nd        1 78H     -0.730300
     10 C6         -1.0880   -0.2430    0.7580 c2        1 78H      0.358300
     11 N2         -7.0820    0.7450   -0.9700 nh        1 78H     -0.891800
     12 C7         -1.0940    1.0460   -0.0420 c3        1 78H      0.139500
     13 C10         0.3040   -0.6730    1.1980 c3        1 78H      0.150500
     14 N11         1.1220   -1.0420    0.0640 nh        1 78H     -0.729600
     15 C15         2.3930   -0.4210   -0.0470 ca        1 78H      0.078600
     16 C16         3.5390   -1.1870   -0.3580 ca        1 78H     -0.197500
     17 C17         2.5290    0.9790    0.0650 ca        1 78H     -0.197500
     18 C18         4.7670   -0.5640   -0.5560 ca        1 78H     -0.086000
     19 C19         3.7690    1.5810   -0.1280 ca        1 78H     -0.086000
     20 C20         4.8990    0.8220   -0.4400 ca        1 78H     -0.141600
     21 C21         6.2470    1.4930   -0.6480 c         1 78H      0.909200
     22 O22         7.2380    0.7590   -0.9240 o         1 78H     -0.832300
     23 O23         6.3050    2.7510   -0.5320 o         1 78H     -0.832300
     24 H3         -6.6300   -1.2510    0.6360 hn        1 78H      0.328500
     25 H21N       -7.8720    0.6440   -0.3730 hn        1 78H      0.412800
     26 H22N       -7.0690    1.6070   -1.4730 hn        1 78H      0.412800
     27 H71        -0.4260    0.9210   -0.9460 h1        1 78H      0.067700
     28 H72        -0.6570    1.8700    0.5980 h1        1 78H      0.067700
     29 H101        0.7510    0.2020    1.7550 h1        1 78H      0.056700
     30 H102        0.2160   -1.5290    1.9300 h1        1 78H      0.056700
     31 H11         1.1810   -2.0360   -0.0360 hn        1 78H      0.381800
     32 H16         3.4640   -2.2800   -0.4550 ha        1 78H      0.105000
     33 H17         1.6540    1.6030    0.2950 ha        1 78H      0.105000
     34 H18         5.6650   -1.1530   -0.8040 ha        1 78H      0.152500
     35 H19         3.8840    2.6740   -0.0410 ha        1 78H      0.152500
     36 HN8        -2.4620    2.1880   -1.1480 hn        1 78H      0.448800
@<TRIPOS>BOND
     1    1    2 2   
     2    2    3 1   
     3    2    4 1   
     4    3    5 2   
     5    3    6 1   
     6    4    7 1   
     7    4   24 1   
     8    5    8 1   
     9    5    9 1   
    10    6   10 2   
    11    7    9 2   
    12    7   11 1   
    13    8   12 1   
    14    8   36 1   
    15   10   12 1   
    16   10   13 1   
    17   11   25 1   
    18   11   26 1   
    19   12   27 1   
    20   12   28 1   
    21   13   14 1   
    22   13   29 1   
    23   13   30 1   
    24   14   15 1   
    25   14   31 1   
    26   15   16 ar  
    27   15   17 ar  
    28   16   18 ar  
    29   16   32 1   
    30   17   19 ar  
    31   17   33 1   
    32   18   20 ar  
    33   18   34 1   
    34   19   20 ar  
    35   19   35 1   
    36   20   21 1   
    37   21   22 1   
    38   21   23 1   
@<TRIPOS>SUBSTRUCTURE
     1 78H         1 TEMP              0 ****  ****    0 ROOT
