@<TRIPOS>MOLECULE
78H
   38    40     1     0     0
SMALL
bcc


@<TRIPOS>ATOM
      1 O4          0.1960    0.9770   -0.5250 o         1 78H     -0.504500
      2 C4          1.3440    0.6190   -0.2730 c         1 78H      0.748700
      3 C5          1.9150    0.1740    0.9980 cc        1 78H     -0.116600
      4 N3          2.2620    0.6380   -1.3880 n         1 78H     -0.492400
      5 C9          3.2840   -0.2030    1.0810 cd        1 78H      0.430600
      6 N5          1.0660    0.1390    2.1060 ne        1 78H     -0.490300
      7 C2          3.5710    0.2500   -1.1910 cc        1 78H      0.591800
      8 N8          3.8150   -0.6190    2.2720 nh        1 78H     -0.720000
      9 N1          4.1230   -0.1590   -0.0550 nd        1 78H     -0.628300
     10 C6          1.5610   -0.2550    3.2410 c2        1 78H      0.342300
     11 N2          4.5020    0.2810   -2.3750 n4        1 78H     -0.811600
     12 C7          3.0010   -0.6840    3.4680 c3        1 78H      0.144500
     13 C10         0.7370   -0.3310    4.5000 c3        1 78H      0.070500
     14 N11        -0.6910    0.0760    4.3530 n4        1 78H     -0.597400
     15 C15        -1.3810   -0.0430    5.6410 ca        1 78H     -0.142400
     16 C16        -2.0020   -1.2610    5.9810 ca        1 78H     -0.127000
     17 C17        -1.3960    1.0580    6.5190 ca        1 78H     -0.127000
     18 C18        -2.6230   -1.3690    7.2170 ca        1 78H     -0.090000
     19 C19        -2.0250    0.9200    7.7490 ca        1 78H     -0.090000
     20 C20        -2.6270   -0.2920    8.1130 ca        1 78H     -0.064600
     21 C21        -3.2760   -0.4460    9.5070 c         1 78H      0.913200
     22 O22        -3.7790   -1.5680    9.7540 o         1 78H     -0.772300
     23 O23        -3.2220    0.5640   10.2490 o         1 78H     -0.772300
     24 H3          1.9050    0.9370   -2.2740 hn        1 78H      0.361500
     25 H21N        5.4440   -0.0320   -2.0880 hn        1 78H      0.490800
     26 H22N        4.5650    1.2410   -2.7380 hn        1 78H      0.490800
     27 H71         3.4660   -0.0180    4.2560 h1        1 78H      0.088700
     28 H72         3.0140   -1.7470    3.8540 h1        1 78H      0.088700
     29 H101        1.2040    0.3340    5.2870 hx        1 78H      0.129700
     30 H102        0.7520   -1.3950    4.8860 hx        1 78H      0.129700
     31 H11        -1.1550   -0.5240    3.6620 hn        1 78H      0.454800
     32 H16        -2.0030   -2.1140    5.2850 ha        1 78H      0.126000
     33 H17        -0.9260    2.0140    6.2440 ha        1 78H      0.126000
     34 H18        -3.1250   -2.3040    7.5320 ha        1 78H      0.196000
     35 H19        -2.0650    1.7550    8.4750 ha        1 78H      0.196000
     36 HN8         4.7720   -0.8870    2.3490 hn        1 78H      0.485800
     37 H23         4.1490   -0.3490   -3.1080 hn        1 78H      0.490800
     38 H112       -0.7440    1.0480    4.0270 hn        1 78H      0.454800
@<TRIPOS>BOND
     1    1    2 2   
     2    2    3 1   
     3    2    4 1   
     4    3    5 2   
     5    3    6 1   
     6    4    7 1   
     7    4   24 1   
     8    5    8 1   
     9    5    9 1   
    10    6   10 2   
    11    7    9 2   
    12    7   11 1   
    13    8   12 1   
    14    8   36 1   
    15   10   12 1   
    16   10   13 1   
    17   11   25 1   
    18   11   26 1   
    19   11   37 1   
    20   12   27 1   
    21   12   28 1   
    22   13   14 1   
    23   13   29 1   
    24   13   30 1   
    25   14   15 1   
    26   14   31 1   
    27   14   38 1   
    28   15   16 ar  
    29   15   17 ar  
    30   16   18 ar  
    31   16   32 1   
    32   17   19 ar  
    33   17   33 1   
    34   18   20 ar  
    35   18   34 1   
    36   19   20 ar  
    37   19   35 1   
    38   20   21 1   
    39   21   22 1   
    40   21   23 1   
@<TRIPOS>SUBSTRUCTURE
     1 78H         1 TEMP              0 ****  ****    0 ROOT
