@<TRIPOS>MOLECULE
78H
   37    39     1     0     0
SMALL
bcc


@<TRIPOS>ATOM
      1 O4          1.4530   -1.4310    0.2020 o         1 78H     -0.601500
      2 C4          2.1810   -0.4960    0.5670 c         1 78H      0.752700
      3 C5          1.8540    0.6040    1.4670 cc        1 78H     -0.197600
      4 N3          3.5060   -0.4970    0.0440 ns        1 78H     -0.512400
      5 C9          2.8500    1.5910    1.7420 cd        1 78H      0.460600
      6 N5          0.5790    0.6440    2.0270 ne        1 78H     -0.435300
      7 C2          4.4130    0.5190    0.3560 cc        1 78H      0.729800
      8 N8          2.5450    2.6370    2.5830 nu        1 78H     -0.752000
      9 N1          4.1320    1.5390    1.2040 nd        1 78H     -0.745300
     10 C6          0.2890    1.6360    2.8140 c2        1 78H      0.267300
     11 N2          5.6630    0.5130   -0.2790 nv        1 78H     -0.909800
     12 C7          1.2360    2.7650    3.1720 c3        1 78H      0.161500
     13 C10        -1.0810    1.7590    3.4540 c3        1 78H      0.168500
     14 N11        -1.1580    1.3760    4.8380 nu        1 78H     -0.729600
     15 C15        -1.1450    0.0330    5.2310 ca        1 78H      0.185600
     16 C16        -1.4110   -1.0330    4.3390 ca        1 78H     -0.203500
     17 C17        -0.9400   -0.2750    6.6030 ca        1 78H     -0.203500
     18 C18        -1.4940   -2.3380    4.8040 ca        1 78H     -0.033500
     19 C19        -1.0270   -1.5810    7.0550 ca        1 78H     -0.033500
     20 C20        -1.3080   -2.6250    6.1620 ca        1 78H     -0.186600
     21 C21        -1.3910   -3.9900    6.6750 c         1 78H      0.658700
     22 O22        -1.2240   -4.3950    7.8330 o         1 78H     -0.569000
     23 O23        -1.6960   -4.9500    5.7490 oh        1 78H     -0.609100
     24 H3          3.7410   -1.2160   -0.6060 hn        1 78H      0.335500
     25 H21N       -1.7260   -5.8160    6.1890 ho        1 78H      0.443000
     26 H22N        6.0250   -0.3640   -0.5710 hn        1 78H      0.434800
     27 H71         0.7810    3.7450    2.8370 h1        1 78H      0.041200
     28 H72         1.3510    2.8090    4.2960 h1        1 78H      0.041200
     29 H101       -1.8390    1.1650    2.8680 h1        1 78H      0.074200
     30 H102       -1.3810    2.8470    3.4010 h1        1 78H      0.074200
     31 H11        -0.6310    1.9690    5.4460 hn        1 78H      0.398800
     32 H16        -1.5370   -0.8460    3.2610 ha        1 78H      0.146500
     33 H17        -0.7190    0.5270    7.3230 ha        1 78H      0.146500
     34 H18        -1.7020   -3.1600    4.0990 ha        1 78H      0.155000
     35 H19        -0.8740   -1.8130    8.1220 ha        1 78H      0.155000
     36 HN8         3.2210    3.3350    2.7860 hn        1 78H      0.456800
     37 H23         6.3310    1.1710    0.0540 hn        1 78H      0.434800
@<TRIPOS>BOND
     1    1    2 2   
     2    2    3 1   
     3    2    4 1   
     4    3    5 2   
     5    3    6 1   
     6    4    7 1   
     7    4   24 1   
     8    5    8 1   
     9    5    9 1   
    10    6   10 2   
    11    7    9 2   
    12    7   11 1   
    13    8   12 1   
    14    8   36 1   
    15   10   12 1   
    16   10   13 1   
    17   11   26 1   
    18   11   37 1   
    19   12   27 1   
    20   12   28 1   
    21   13   14 1   
    22   13   29 1   
    23   13   30 1   
    24   14   15 1   
    25   14   31 1   
    26   15   16 ar  
    27   15   17 ar  
    28   16   18 ar  
    29   16   32 1   
    30   17   19 ar  
    31   17   33 1   
    32   18   20 ar  
    33   18   34 1   
    34   19   20 ar  
    35   19   35 1   
    36   20   21 1   
    37   21   22 2   
    38   21   23 1   
    39   23   25 1   
@<TRIPOS>SUBSTRUCTURE
     1 78H         1 TEMP              0 ****  ****    0 ROOT
