@<TRIPOS>MOLECULE
78J
   57    60     1     0     0
SMALL
bcc


@<TRIPOS>ATOM
      1 C01         0.1770   -0.9530   -0.2670 c3        1 78J     -0.050900
      2 C05         1.6150   -0.6270   -0.1780 cc        1 78J     -0.150400
      3 C06         2.2440   -0.3030    0.9770 cd        1 78J     -0.059200
      4 C08         3.6510    0.0110    0.9960 ca        1 78J     -0.088800
      5 C09         4.3210    0.3300    2.1890 ca        1 78J     -0.213300
      6 C11         5.6810    0.6220    2.1310 ca        1 78J      0.380200
      7 N13         6.4010    0.6450    0.9900 nb        1 78J     -0.685000
      8 C14         5.7930    0.3400   -0.1790 ca        1 78J      0.577200
      9 N15         6.5080    0.3020   -1.4100 nu        1 78J     -0.818900
     10 C17         7.9580    0.1650   -1.3780 c3        1 78J      0.195500
     11 C19         8.7080    1.4940   -1.1960 c3        1 78J     -0.109400
     12 C22        10.2170    1.2800   -1.2040 c3        1 78J      0.163800
     13 N25        10.6810    0.6100   -2.4020 n7        1 78J     -0.820200
     14 C27         9.9990   -0.6410   -2.6540 c3        1 78J      0.134800
     15 C30         8.4640   -0.4950   -2.6920 c3        1 78J      0.143100
     16 O32         7.9130   -1.8100   -2.7500 os        1 78J     -0.412600
     17 C33         7.6810   -2.2600   -4.0850 c3        1 78J      0.133400
     18 C36         7.1200   -3.6750   -3.9830 c3        1 78J     -0.066700
     19 C38         6.4950   -4.0730   -5.3120 c3        1 78J     -0.072900
     20 C41         5.9590   -5.4890   -5.2570 c3        1 78J     -0.075900
     21 C44         7.0340   -6.4740   -4.8450 c3        1 78J     -0.077400
     22 C47         7.6690   -6.0740   -3.5290 c3        1 78J     -0.075900
     23 C50         8.2090   -4.6600   -3.5850 c3        1 78J     -0.072900
     24 C53         4.3770   -0.0130   -0.2240 ca        1 78J     -0.026700
     25 N54         3.7330   -0.3520   -1.4030 ns        1 78J     -0.425100
     26 C56         2.3740   -0.6830   -1.4460 c         1 78J      0.686700
     27 O57         1.8800   -1.0020   -2.5450 o         1 78J     -0.632500
     28 H011       -0.3380   -0.2210   -0.9400 hc        1 78J      0.056033
     29 H012        0.0450   -1.9720   -0.7110 hc        1 78J      0.056033
     30 H013       -0.3080   -0.9270    0.7380 hc        1 78J      0.056033
     31 H06         1.7010   -0.2690    1.9350 ha        1 78J      0.145000
     32 H09         3.7780    0.3450    3.1430 ha        1 78J      0.147000
     33 H11         6.2540    0.8700    3.0430 h4        1 78J      0.026100
     34 H15         6.2200    1.0560   -2.0060 hn        1 78J      0.386800
     35 H17         8.2310   -0.5340   -0.5340 h1        1 78J      0.089700
     36 H191        8.4240    2.2060   -2.0150 hc        1 78J      0.058700
     37 H192        8.4260    1.9620   -0.2190 hc        1 78J      0.058700
     38 H30         8.1520    0.1160   -3.5810 h1        1 78J      0.052700
     39 H221       10.7270    2.2840   -1.1630 h1        1 78J      0.033200
     40 H222       10.4980    0.7170   -0.2640 h1        1 78J      0.033200
     41 H25        11.6710    0.4530   -2.3480 hn        1 78J      0.365800
     42 H271       10.3410   -1.0220   -3.6580 h1        1 78J      0.039700
     43 H272       10.2450   -1.4350   -1.8880 h1        1 78J      0.039700
     44 H331        6.9420   -1.5790   -4.5860 h1        1 78J      0.026700
     45 H332        8.6430   -2.2470   -4.6620 h1        1 78J      0.026700
     46 H36         6.3240   -3.6820   -3.1870 hc        1 78J      0.068700
     47 H381        5.6610   -3.3670   -5.5620 hc        1 78J      0.041700
     48 H382        7.2630   -3.9920   -6.1250 hc        1 78J      0.041700
     49 H501        9.0500   -4.6100   -4.3260 hc        1 78J      0.041700
     50 H502        8.6180   -4.3650   -2.5840 hc        1 78J      0.041700
     51 H411        5.5550   -5.7740   -6.2630 hc        1 78J      0.040200
     52 H412        5.1090   -5.5370   -4.5260 hc        1 78J      0.040200
     53 H441        7.8230   -6.5200   -5.6410 hc        1 78J      0.038200
     54 H442        6.5890   -7.4980   -4.7520 hc        1 78J      0.038200
     55 H471        8.5020   -6.7830   -3.2830 hc        1 78J      0.040200
     56 H472        6.9080   -6.1520   -2.7080 hc        1 78J      0.040200
     57 H54         4.2680   -0.4800   -2.2370 hn        1 78J      0.347500
@<TRIPOS>BOND
     1    1    2 1   
     2    1   28 1   
     3    1   29 1   
     4    1   30 1   
     5    2    3 2   
     6    2   26 1   
     7    3    4 1   
     8    3   31 1   
     9    4    5 ar  
    10    4   24 ar  
    11    5    6 ar  
    12    5   32 1   
    13    6    7 ar  
    14    6   33 1   
    15    7    8 ar  
    16    8    9 1   
    17    8   24 ar  
    18    9   10 1   
    19    9   34 1   
    20   10   11 1   
    21   10   15 1   
    22   10   35 1   
    23   11   12 1   
    24   11   36 1   
    25   11   37 1   
    26   12   13 1   
    27   12   39 1   
    28   12   40 1   
    29   13   14 1   
    30   13   41 1   
    31   14   15 1   
    32   14   42 1   
    33   14   43 1   
    34   15   16 1   
    35   15   38 1   
    36   16   17 1   
    37   17   18 1   
    38   17   44 1   
    39   17   45 1   
    40   18   19 1   
    41   18   23 1   
    42   18   46 1   
    43   19   20 1   
    44   19   47 1   
    45   19   48 1   
    46   20   21 1   
    47   20   51 1   
    48   20   52 1   
    49   21   22 1   
    50   21   53 1   
    51   21   54 1   
    52   22   23 1   
    53   22   55 1   
    54   22   56 1   
    55   23   49 1   
    56   23   50 1   
    57   24   25 1   
    58   25   26 1   
    59   25   57 1   
    60   26   27 2   
@<TRIPOS>SUBSTRUCTURE
     1 78J         1 TEMP              0 ****  ****    0 ROOT
