@<TRIPOS>MOLECULE
78J
   57    60     1     0     0
SMALL
bcc


@<TRIPOS>ATOM
      1 C01         0.1750   -0.9210   -0.2830 c3        1 78J     -0.050900
      2 C05         1.6140   -0.6010   -0.1900 cc        1 78J     -0.150400
      3 C06         2.2410   -0.2810    0.9670 cd        1 78J     -0.059200
      4 C08         3.6490    0.0270    0.9900 ca        1 78J     -0.088800
      5 C09         4.3180    0.3430    2.1850 ca        1 78J     -0.213300
      6 C11         5.6790    0.6290    2.1310 ca        1 78J      0.380200
      7 N13         6.4020    0.6490    0.9920 nb        1 78J     -0.685000
      8 C14         5.7960    0.3480   -0.1790 ca        1 78J      0.577200
      9 N15         6.5140    0.3080   -1.4080 nh        1 78J     -0.818900
     10 C17         7.9630    0.1660   -1.3720 c3        1 78J      0.195500
     11 C19         8.7170    1.4920   -1.1870 c3        1 78J     -0.109400
     12 C22        10.2260    1.2730   -1.1900 c3        1 78J      0.163800
     13 N25        10.6920    0.6010   -2.3880 n3        1 78J     -0.820200
     14 C27        10.0060   -0.6470   -2.6430 c3        1 78J      0.134800
     15 C30         8.4710   -0.4950   -2.6850 c3        1 78J      0.143100
     16 O32         7.9150   -1.8080   -2.7460 os        1 78J     -0.412600
     17 C33         7.6860   -2.2560   -4.0820 c3        1 78J      0.133400
     18 C36         7.1180   -3.6680   -3.9840 c3        1 78J     -0.066700
     19 C38         6.4940   -4.0620   -5.3140 c3        1 78J     -0.072900
     20 C41         5.9520   -5.4760   -5.2620 c3        1 78J     -0.075900
     21 C44         7.0210   -6.4660   -4.8480 c3        1 78J     -0.077400
     22 C47         7.6550   -6.0710   -3.5300 c3        1 78J     -0.075900
     23 C50         8.2010   -4.6590   -3.5830 c3        1 78J     -0.072900
     24 C53         4.3790    0.0010   -0.2270 ca        1 78J     -0.026700
     25 N54         3.7360   -0.3340   -1.4090 n         1 78J     -0.425100
     26 C56         2.3760   -0.6600   -1.4560 c         1 78J      0.686700
     27 O57         1.8830   -0.9760   -2.5570 o         1 78J     -0.632500
     28 H011       -0.3350   -0.1860   -0.9570 hc        1 78J      0.056033
     29 H012        0.0390   -1.9390   -0.7290 hc        1 78J      0.056033
     30 H013       -0.3140   -0.8940    0.7210 hc        1 78J      0.056033
     31 H06         1.6950   -0.2440    1.9240 ha        1 78J      0.145000
     32 H09         3.7720    0.3590    3.1370 ha        1 78J      0.147000
     33 H11         6.2500    0.8740    3.0450 h4        1 78J      0.026100
     34 H15         6.2310    1.0630   -2.0040 hn        1 78J      0.386800
     35 H17         8.2310   -0.5350   -0.5270 h1        1 78J      0.089700
     36 H191        8.4390    2.2050   -2.0070 hc        1 78J      0.058700
     37 H192        8.4340    1.9600   -0.2100 hc        1 78J      0.058700
     38 H30         8.1640    0.1180   -3.5750 h1        1 78J      0.052700
     39 H221       10.5020    0.7070   -0.2500 h1        1 78J      0.033200
     40 H222       10.7400    2.2750   -1.1470 h1        1 78J      0.033200
     41 H25        11.6800    0.4410   -2.3300 hn        1 78J      0.365800
     42 H271       10.3490   -1.0280   -3.6460 h1        1 78J      0.039700
     43 H272       10.2450   -1.4420   -1.8770 h1        1 78J      0.039700
     44 H331        6.9510   -1.5710   -4.5850 h1        1 78J      0.026700
     45 H332        8.6490   -2.2470   -4.6570 h1        1 78J      0.026700
     46 H36         6.3200   -3.6720   -3.1890 hc        1 78J      0.068700
     47 H381        7.2650   -3.9840   -6.1250 hc        1 78J      0.041700
     48 H382        5.6640   -3.3520   -5.5660 hc        1 78J      0.041700
     49 H501        8.6090   -4.3660   -2.5810 hc        1 78J      0.041700
     50 H502        9.0440   -4.6110   -4.3220 hc        1 78J      0.041700
     51 H411        5.5490   -5.7570   -6.2690 hc        1 78J      0.040200
     52 H412        5.1000   -5.5210   -4.5330 hc        1 78J      0.040200
     53 H441        7.8120   -6.5150   -5.6420 hc        1 78J      0.038200
     54 H442        6.5710   -7.4880   -4.7580 hc        1 78J      0.038200
     55 H471        6.8910   -6.1450   -2.7110 hc        1 78J      0.040200
     56 H472        8.4840   -6.7830   -3.2820 hc        1 78J      0.040200
     57 H54         4.2730   -0.4640   -2.2410 hn        1 78J      0.347500
@<TRIPOS>BOND
     1    1    2 1   
     2    1   28 1   
     3    1   29 1   
     4    1   30 1   
     5    2    3 2   
     6    2   26 1   
     7    3    4 1   
     8    3   31 1   
     9    4    5 ar  
    10    4   24 ar  
    11    5    6 ar  
    12    5   32 1   
    13    6    7 ar  
    14    6   33 1   
    15    7    8 ar  
    16    8    9 1   
    17    8   24 ar  
    18    9   10 1   
    19    9   34 1   
    20   10   11 1   
    21   10   15 1   
    22   10   35 1   
    23   11   12 1   
    24   11   36 1   
    25   11   37 1   
    26   12   13 1   
    27   12   39 1   
    28   12   40 1   
    29   13   14 1   
    30   13   41 1   
    31   14   15 1   
    32   14   42 1   
    33   14   43 1   
    34   15   16 1   
    35   15   38 1   
    36   16   17 1   
    37   17   18 1   
    38   17   44 1   
    39   17   45 1   
    40   18   19 1   
    41   18   23 1   
    42   18   46 1   
    43   19   20 1   
    44   19   47 1   
    45   19   48 1   
    46   20   21 1   
    47   20   51 1   
    48   20   52 1   
    49   21   22 1   
    50   21   53 1   
    51   21   54 1   
    52   22   23 1   
    53   22   55 1   
    54   22   56 1   
    55   23   49 1   
    56   23   50 1   
    57   24   25 1   
    58   25   26 1   
    59   25   57 1   
    60   26   27 2   
@<TRIPOS>SUBSTRUCTURE
     1 78J         1 TEMP              0 ****  ****    0 ROOT
