@<TRIPOS>MOLECULE
78M
   56    55     1     0     0
SMALL
bcc


@<TRIPOS>ATOM
      1 O21         9.6320    0.7500   -0.9010 oh        1 78M     -0.602800
      2 C20         9.0680    0.3730    0.3430 c3        1 78M      0.097400
      3 C18         7.5790    0.7370    0.2960 c3        1 78M      0.118100
      4 O19         7.0050    0.5530    1.5740 oh        1 78M     -0.596800
      5 C17         6.8830   -0.0840   -0.7890 c3        1 78M      0.104400
      6 O2          5.4950    0.2490   -0.8670 os        1 78M     -0.432900
      7 C1          4.6300   -0.4070   -0.0340 c         1 78M      0.645100
      8 O1          5.0840   -1.2740    0.7180 o         1 78M     -0.561000
      9 C2          3.2190    0.0670   -0.1830 c3        1 78M     -0.126400
     10 C3          2.2390   -1.0760   -0.0250 c3        1 78M     -0.079400
     11 C4          0.8140   -0.5670   -0.0370 c3        1 78M     -0.079400
     12 C5         -0.1720   -1.7070    0.1010 c3        1 78M     -0.077400
     13 C6         -1.5990   -1.1980    0.0930 c3        1 78M     -0.048200
     14 C7         -2.5860   -2.2950    0.2240 c2        1 78M     -0.176200
     15 C8         -3.9100   -2.1070    0.2080 c2        1 78M     -0.171200
     16 C9         -4.5510   -0.7810    0.0540 c3        1 78M     -0.049200
     17 C10        -6.0630   -0.8630    0.1060 c3        1 78M     -0.077400
     18 C11        -6.6900    0.5060   -0.0520 c3        1 78M     -0.079400
     19 C12        -8.2010    0.4260   -0.0000 c3        1 78M     -0.079400
     20 C13        -8.8290    1.7940   -0.1580 c3        1 78M     -0.079400
     21 C15       -10.9700    3.0760   -0.2630 c3        1 78M     -0.092100
     22 C14       -10.3400    1.7160   -0.1060 c3        1 78M     -0.080400
     23 H21        10.5880    0.6570   -0.8100 ho        1 78M      0.406000
     24 H201        9.1980   -0.7310    0.5030 h1        1 78M      0.034200
     25 H202        9.5580    0.9250    1.1880 h1        1 78M      0.034200
     26 H18         7.4590    1.8370    0.0850 h1        1 78M      0.094700
     27 H19         6.8720   -0.3960    1.7060 ho        1 78M      0.420000
     28 H171        7.2870    0.2000   -1.7980 h1        1 78M      0.078200
     29 H172        7.0120   -1.1820   -0.6060 h1        1 78M      0.078200
     30 H21C        3.0450    0.8450    0.6100 hc        1 78M      0.081200
     31 H22C        3.0910    0.5620   -1.1820 hc        1 78M      0.081200
     32 H31C        2.3850   -1.8150   -0.8560 hc        1 78M      0.057200
     33 H32C        2.4470   -1.6150    0.9380 hc        1 78M      0.057200
     34 H41C        0.6660    0.1620    0.8030 hc        1 78M      0.041700
     35 H42C        0.6190   -0.0140   -0.9940 hc        1 78M      0.041700
     36 H51C       -0.0270   -2.4350   -0.7410 hc        1 78M      0.044700
     37 H52C        0.0260   -2.2610    1.0560 hc        1 78M      0.044700
     38 H61C       -1.7410   -0.4660    0.9350 hc        1 78M      0.047200
     39 H62C       -1.7910   -0.6330   -0.8610 hc        1 78M      0.047200
     40 H7         -2.1690   -3.3090    0.3420 ha        1 78M      0.122000
     41 H8         -4.5950   -2.9650    0.3110 ha        1 78M      0.122000
     42 H91C       -4.1840   -0.0910    0.8640 hc        1 78M      0.047700
     43 H92C       -4.2340   -0.3240   -0.9250 hc        1 78M      0.047700
     44 H101       -6.4310   -1.5420   -0.7060 hc        1 78M      0.041700
     45 H102       -6.3810   -1.3120    1.0840 hc        1 78M      0.041700
     46 H111       -6.3210    1.1850    0.7610 hc        1 78M      0.039700
     47 H112       -6.3710    0.9550   -1.0290 hc        1 78M      0.039700
     48 H121       -8.5700   -0.2530   -0.8130 hc        1 78M      0.039700
     49 H122       -8.5200   -0.0240    0.9770 hc        1 78M      0.039700
     50 H131       -8.4600    2.4740    0.6550 hc        1 78M      0.039700
     51 H132       -8.5100    2.2440   -1.1350 hc        1 78M      0.039700
     52 H151      -10.6350    3.7620    0.5520 hc        1 78M      0.032700
     53 H152      -10.6850    3.5320   -1.2420 hc        1 78M      0.032700
     54 H153      -12.0830    2.9960   -0.2220 hc        1 78M      0.032700
     55 H141      -10.7070    1.0350   -0.9190 hc        1 78M      0.038700
     56 H142      -10.6570    1.2640    0.8710 hc        1 78M      0.038700
@<TRIPOS>BOND
     1    1    2 1   
     2    1   23 1   
     3    2    3 1   
     4    2   24 1   
     5    2   25 1   
     6    3    4 1   
     7    3    5 1   
     8    3   26 1   
     9    4   27 1   
    10    5    6 1   
    11    5   28 1   
    12    5   29 1   
    13    6    7 1   
    14    7    8 2   
    15    7    9 1   
    16    9   10 1   
    17    9   30 1   
    18    9   31 1   
    19   10   11 1   
    20   10   32 1   
    21   10   33 1   
    22   11   12 1   
    23   11   34 1   
    24   11   35 1   
    25   12   13 1   
    26   12   36 1   
    27   12   37 1   
    28   13   14 1   
    29   13   38 1   
    30   13   39 1   
    31   14   15 2   
    32   14   40 1   
    33   15   16 1   
    34   15   41 1   
    35   16   17 1   
    36   16   42 1   
    37   16   43 1   
    38   17   18 1   
    39   17   44 1   
    40   17   45 1   
    41   18   19 1   
    42   18   46 1   
    43   18   47 1   
    44   19   20 1   
    45   19   48 1   
    46   19   49 1   
    47   20   22 1   
    48   20   50 1   
    49   20   51 1   
    50   21   22 1   
    51   21   52 1   
    52   21   53 1   
    53   21   54 1   
    54   22   55 1   
    55   22   56 1   
@<TRIPOS>SUBSTRUCTURE
     1 78M         1 TEMP              0 ****  ****    0 ROOT
