@<TRIPOS>MOLECULE
78M
   56    54     1     0     0
SMALL
bcc


@<TRIPOS>ATOM
      1 O21        -7.4230   -5.2690   -6.6330 oh        1 78M     -0.339000
      2 C20        -6.3580   -4.3510   -6.7380 c3        1 78M     -0.058000
      3 C18        -6.2610   -3.5430   -5.4640 c3        1 78M      0.029000
      4 O19        -7.4310   -2.7770   -5.3040 oh        1 78M     -0.327000
      5 C17        -5.0630   -2.6240   -5.5390 c3        1 78M     -0.012000
      6 O2         -4.6420   -2.2940   -4.2360 os        1 78M     -0.283000
      7 C1         -3.5530   -1.4070   -4.1980 c2        1 78M      0.305000
      8 O1         -3.0590   -1.0060   -5.2330 o         1 78M     -0.352000
      9 C2         -3.0050   -0.9380   -2.8680 c3        1 78M     -0.156000
     10 C3         -1.5270   -0.6470   -3.0050 c3        1 78M     -0.158000
     11 C4         -0.9650   -0.2490   -1.6580 c3        1 78M     -0.158000
     12 C5          0.5120    0.0520   -1.7970 c3        1 78M     -0.156000
     13 C6          1.1120    0.2760   -0.4270 c3        1 78M     -0.131000
     14 C7          2.5990   -0.0010   -0.4760 c2        1 78M     -0.172000
     15 C8          3.3810    0.3290    0.5700 c1        1 78M     -0.167000
     16 C9          2.7720    0.9760    1.7950 c2        1 78M     -0.132000
     17 C10         3.8260    1.1090    2.8720 c3        1 78M     -0.156000
     18 C11         3.2880    1.9580    4.0020 c3        1 78M     -0.158000
     19 C12         4.3550    2.1210    5.0630 c3        1 78M     -0.158000
     20 C13         3.8320    3.0050    6.1730 c3        1 78M     -0.158000
     21 C15         4.3730    4.0450    8.3480 c3        1 78M     -0.210000
     22 C14         4.9080    3.1910    7.2200 c3        1 78M     -0.159000
     23 H21        -7.5520   -5.6650   -7.4180 ho        1 78M      0.209000
     24 H201       -5.5200   -4.8380   -6.8800 h1        1 78M      0.077000
     25 H202       -6.5190   -3.7500   -7.4940 h1        1 78M      0.077000
     26 H18        -6.1610   -4.1480   -4.7020 h1        1 78M      0.109000
     27 H19        -7.9420   -3.1440   -4.6760 ho        1 78M      0.220000
     28 H171       -4.3340   -3.0760   -6.0130 h1        1 78M      0.107500
     29 H172       -5.3080   -1.8070   -6.0200 h1        1 78M      0.107500
     30 H21C       -3.4730   -0.1250   -2.5920 hc        1 78M      0.118500
     31 H22C       -3.1400   -1.6360   -2.1960 hc        1 78M      0.118500
     32 H31C       -1.3960    0.0830   -3.6420 hc        1 78M      0.097000
     33 H32C       -1.0660   -1.4480   -3.3270 hc        1 78M      0.097000
     34 H41C       -1.4300    0.5480   -1.3330 hc        1 78M      0.080500
     35 H42C       -1.0900   -0.9820   -1.0230 hc        1 78M      0.080500
     36 H51C        0.9590   -0.7030   -2.2300 hc        1 78M      0.084000
     37 H52C        0.6310    0.8570   -2.3410 hc        1 78M      0.084000
     38 H61C        0.6890   -0.3280    0.2170 hc        1 78M      0.086500
     39 H62C        0.9620    1.2020   -0.1520 hc        1 78M      0.086500
     40 H7          2.9910   -0.4190   -1.2670 ha        1 78M      0.123000
     41 H8          4.3400    0.1500    0.5390 ha        1 78M      0.123000
     42 H91C        2.4320    1.8620    1.5610 ha        1 78M      0.087000
     43 H92C        2.0370    0.4210    2.1250 ha        1 78M      0.087000
     44 H101        4.0580    0.2220    3.2130 hc        1 78M      0.081000
     45 H102        4.6240    1.5330    2.4960 hc        1 78M      0.081000
     46 H111        3.0350    2.8380    3.6570 hc        1 78M      0.079000
     47 H112        2.5040    1.5230    4.3930 hc        1 78M      0.079000
     48 H121        4.5890    1.2440    5.4270 hc        1 78M      0.079000
     49 H122        5.1490    2.5310    4.6660 hc        1 78M      0.079000
     50 H131        3.0480    2.5860    6.5820 hc        1 78M      0.079000
     51 H132        3.5810    3.8760    5.8050 hc        1 78M      0.079000
     52 H151        5.0910    4.2260    8.9900 hc        1 78M      0.072000
     53 H152        4.0380    4.8920    7.9850 hc        1 78M      0.072000
     54 H153        3.6430    3.5710    8.7990 hc        1 78M      0.072000
     55 H141        5.6830    3.6310    6.8170 hc        1 78M      0.078000
     56 H142        5.1750    2.3180    7.5710 hc        1 78M      0.078000
@<TRIPOS>BOND
     1    1    2 1   
     2    1   23 1   
     3    2    3 1   
     4    2   24 1   
     5    2   25 1   
     6    3    4 1   
     7    3    5 1   
     8    3   26 1   
     9    4   27 1   
    10    5    6 1   
    11    5   28 1   
    12    5   29 1   
    13    6    7 1   
    14    7    8 1   
    15    7    9 1   
    16    9   10 1   
    17    9   30 1   
    18    9   31 1   
    19   10   11 1   
    20   10   32 1   
    21   10   33 1   
    22   11   12 1   
    23   11   34 1   
    24   11   35 1   
    25   12   13 1   
    26   12   36 1   
    27   12   37 1   
    28   13   14 1   
    29   13   38 1   
    30   13   39 1   
    31   14   15 1   
    32   14   40 1   
    33   15   41 1   
    34   16   17 1   
    35   16   42 1   
    36   16   43 1   
    37   17   18 1   
    38   17   44 1   
    39   17   45 1   
    40   18   19 1   
    41   18   46 1   
    42   18   47 1   
    43   19   20 1   
    44   19   48 1   
    45   19   49 1   
    46   20   22 1   
    47   20   50 1   
    48   20   51 1   
    49   21   22 1   
    50   21   52 1   
    51   21   53 1   
    52   21   54 1   
    53   22   55 1   
    54   22   56 1   
@<TRIPOS>SUBSTRUCTURE
     1 78M         1 TEMP              0 ****  ****    0 ROOT
