@<TRIPOS>MOLECULE
78M
   56    55     1     0     0
SMALL
bcc


@<TRIPOS>ATOM
      1 O21        -0.0620   -1.2130    0.5150 oh        1 78M     -0.611800
      2 C20         1.3390   -1.2870    0.3030 c3        1 78M      0.092400
      3 C18         1.9460   -0.1130    1.0800 c3        1 78M      0.140100
      4 O19         1.4300    1.1190    0.6000 oh        1 78M     -0.599800
      5 C17         3.4600   -0.0630    0.8690 c3        1 78M      0.138400
      6 O2          4.0320    0.0860    2.1780 os        1 78M     -0.444900
      7 C1          5.3900    0.2510    2.2380 c         1 78M      0.634100
      8 O1          6.0280    0.2110    1.1840 o         1 78M     -0.542000
      9 C2          5.8790    0.4730    3.6350 c3        1 78M     -0.127400
     10 C3          7.2310   -0.1750    3.8480 c3        1 78M     -0.079400
     11 C4          7.7830    0.1710    5.2140 c3        1 78M     -0.079400
     12 C5          9.1250   -0.4910    5.4410 c3        1 78M     -0.077400
     13 C6          9.6810   -0.1420    6.8060 c3        1 78M     -0.048200
     14 C7         10.9940   -0.7800    7.0570 c2        1 78M     -0.176200
     15 C8         11.6770   -0.6480    8.2000 c2        1 78M     -0.171200
     16 C9         11.2030    0.1510    9.3540 c3        1 78M     -0.049200
     17 C10        12.1890    0.1430   10.5030 c3        1 78M     -0.077400
     18 C11        11.6800    0.9670   11.6660 c3        1 78M     -0.079400
     19 C12        12.6640    0.9600   12.8170 c3        1 78M     -0.079400
     20 C13        12.1560    1.7840   13.9800 c3        1 78M     -0.079400
     21 C15        12.6370    2.5970   16.2910 c3        1 78M     -0.092100
     22 C14        13.1390    1.7770   15.1310 c3        1 78M     -0.080400
     23 H21        -0.4650   -1.8890   -0.0420 ho        1 78M      0.410000
     24 H201        1.7380   -2.2600    0.6930 h1        1 78M      0.037700
     25 H202        1.5710   -1.1930   -0.7910 h1        1 78M      0.037700
     26 H18         1.7010   -0.2210    2.1750 h1        1 78M      0.069700
     27 H19         0.4680    1.0600    0.6690 ho        1 78M      0.421000
     28 H171        3.7520    0.8140    0.2330 h1        1 78M      0.068200
     29 H172        3.8500   -1.0090    0.4140 h1        1 78M      0.068200
     30 H21C        5.9490    1.5830    3.7910 hc        1 78M      0.079200
     31 H22C        5.1290    0.0710    4.3660 hc        1 78M      0.079200
     32 H31C        7.9400    0.1680    3.0470 hc        1 78M      0.057700
     33 H32C        7.1340   -1.2890    3.7490 hc        1 78M      0.057700
     34 H41C        7.8920    1.2840    5.3050 hc        1 78M      0.041200
     35 H42C        7.0610   -0.1580    6.0070 hc        1 78M      0.041200
     36 H51C        9.0160   -1.6040    5.3530 hc        1 78M      0.044700
     37 H52C        9.8450   -0.1640    4.6460 hc        1 78M      0.044700
     38 H61C        8.9520   -0.4600    7.6020 hc        1 78M      0.047200
     39 H62C        9.7860    0.9750    6.8950 hc        1 78M      0.047200
     40 H7         11.4010   -1.3890    6.2340 ha        1 78M      0.123000
     41 H8         12.6510   -1.1480    8.3260 ha        1 78M      0.123000
     42 H91C       10.2130   -0.2530    9.7060 hc        1 78M      0.047700
     43 H92C       11.0180    1.2100    9.0240 hc        1 78M      0.047700
     44 H101       13.1750    0.5510   10.1560 hc        1 78M      0.041700
     45 H102       12.3670   -0.9130   10.8390 hc        1 78M      0.041700
     46 H111       11.5020    2.0220   11.3310 hc        1 78M      0.039700
     47 H112       10.6940    0.5590   12.0130 hc        1 78M      0.039700
     48 H121       12.8420   -0.0960   13.1530 hc        1 78M      0.039700
     49 H122       13.6500    1.3660   12.4700 hc        1 78M      0.039700
     50 H131       11.1690    1.3770   14.3260 hc        1 78M      0.039700
     51 H132       11.9780    2.8400   13.6440 hc        1 78M      0.039700
     52 H151       11.6660    2.1940   16.6690 hc        1 78M      0.032700
     53 H152       12.4780    3.6590   15.9850 hc        1 78M      0.032700
     54 H153       13.3760    2.5790   17.1280 hc        1 78M      0.032700
     55 H141       14.1250    2.1830   14.7820 hc        1 78M      0.038700
     56 H142       13.3160    0.7210   15.4650 hc        1 78M      0.038700
@<TRIPOS>BOND
     1    1    2 1   
     2    1   23 1   
     3    2    3 1   
     4    2   24 1   
     5    2   25 1   
     6    3    4 1   
     7    3    5 1   
     8    3   26 1   
     9    4   27 1   
    10    5    6 1   
    11    5   28 1   
    12    5   29 1   
    13    6    7 1   
    14    7    8 2   
    15    7    9 1   
    16    9   10 1   
    17    9   30 1   
    18    9   31 1   
    19   10   11 1   
    20   10   32 1   
    21   10   33 1   
    22   11   12 1   
    23   11   34 1   
    24   11   35 1   
    25   12   13 1   
    26   12   36 1   
    27   12   37 1   
    28   13   14 1   
    29   13   38 1   
    30   13   39 1   
    31   14   15 2   
    32   14   40 1   
    33   15   16 1   
    34   15   41 1   
    35   16   17 1   
    36   16   42 1   
    37   16   43 1   
    38   17   18 1   
    39   17   44 1   
    40   17   45 1   
    41   18   19 1   
    42   18   46 1   
    43   18   47 1   
    44   19   20 1   
    45   19   48 1   
    46   19   49 1   
    47   20   22 1   
    48   20   50 1   
    49   20   51 1   
    50   21   22 1   
    51   21   52 1   
    52   21   53 1   
    53   21   54 1   
    54   22   55 1   
    55   22   56 1   
@<TRIPOS>SUBSTRUCTURE
     1 78M         1 TEMP              0 ****  ****    0 ROOT
