@<TRIPOS>MOLECULE
78M
   56    55     1     0     0
SMALL
bcc


@<TRIPOS>ATOM
      1 O21        -0.0740   -1.1770    0.5330 oh        1 78M     -0.611800
      2 C20         1.3250   -1.2800    0.3230 c3        1 78M      0.092400
      3 C18         1.9520   -0.1000    1.0750 c3        1 78M      0.140100
      4 O19         1.4580    1.1300    0.5660 oh        1 78M     -0.599800
      5 C17         3.4670   -0.0810    0.8640 c3        1 78M      0.138400
      6 O2          4.0410    0.0830    2.1700 os        1 78M     -0.444900
      7 C1          5.4020    0.2260    2.2280 c         1 78M      0.634100
      8 O1          6.0390    0.1540    1.1760 o         1 78M     -0.541000
      9 C2          5.8940    0.4650    3.6210 c3        1 78M     -0.127400
     10 C3          7.2360   -0.1980    3.8450 c3        1 78M     -0.079400
     11 C4          7.7920    0.1640    5.2060 c3        1 78M     -0.079400
     12 C5          9.1250   -0.5130    5.4450 c3        1 78M     -0.077400
     13 C6          9.6860   -0.1480    6.8040 c3        1 78M     -0.048200
     14 C7         10.9900   -0.8000    7.0670 c2        1 78M     -0.176200
     15 C8         11.6660   -0.6720    8.2140 c2        1 78M     -0.171200
     16 C9         11.1920    0.1350    9.3630 c3        1 78M     -0.049200
     17 C10        12.1810    0.1370   10.5100 c3        1 78M     -0.077400
     18 C11        11.6720    0.9690   11.6680 c3        1 78M     -0.079400
     19 C12        12.6580    0.9730   12.8160 c3        1 78M     -0.079400
     20 C13        12.1500    1.8040   13.9750 c3        1 78M     -0.079400
     21 C15        12.6330    2.6350   16.2790 c3        1 78M     -0.092100
     22 C14        13.1350    1.8090   15.1240 c3        1 78M     -0.080400
     23 H21        -0.4890   -1.8580   -0.0090 ho        1 78M      0.410000
     24 H201        1.7070   -2.2510    0.7350 h1        1 78M      0.037700
     25 H202        1.5600   -1.2140   -0.7720 h1        1 78M      0.037700
     26 H18         1.7050   -0.1790    2.1710 h1        1 78M      0.069700
     27 H19         0.4950    1.0890    0.6360 ho        1 78M      0.421000
     28 H171        3.8410   -1.0430    0.4280 h1        1 78M      0.068200
     29 H172        3.7750    0.7780    0.2110 h1        1 78M      0.068200
     30 H21C        5.1380    0.0880    4.3590 hc        1 78M      0.079200
     31 H22C        5.9800    1.5770    3.7570 hc        1 78M      0.079200
     32 H31C        7.9500    0.1200    3.0400 hc        1 78M      0.057700
     33 H32C        7.1230   -1.3120    3.7660 hc        1 78M      0.057700
     34 H41C        7.9170    1.2760    5.2780 hc        1 78M      0.041200
     35 H42C        7.0660   -0.1410    6.0050 hc        1 78M      0.041200
     36 H51C        9.8500   -0.2090    4.6440 hc        1 78M      0.044700
     37 H52C        9.0010   -1.6260    5.3750 hc        1 78M      0.044700
     38 H61C        9.8070    0.9680    6.8740 hc        1 78M      0.047200
     39 H62C        8.9520   -0.4420    7.6050 hc        1 78M      0.047200
     40 H7         11.3960   -1.4160    6.2480 ha        1 78M      0.123000
     41 H8         12.6340   -1.1820    8.3480 ha        1 78M      0.123000
     42 H91C       11.0040    1.1910    9.0260 hc        1 78M      0.047700
     43 H92C       10.2040   -0.2690    9.7190 hc        1 78M      0.047700
     44 H101       13.1650    0.5440   10.1580 hc        1 78M      0.041700
     45 H102       12.3620   -0.9150   10.8540 hc        1 78M      0.041700
     46 H111       11.4900    2.0210   11.3250 hc        1 78M      0.039700
     47 H112       10.6870    0.5620   12.0200 hc        1 78M      0.039700
     48 H121       12.8390   -0.0800   13.1600 hc        1 78M      0.039700
     49 H122       13.6430    1.3790   12.4650 hc        1 78M      0.039700
     50 H131       11.1650    1.3970   14.3260 hc        1 78M      0.039700
     51 H132       11.9690    2.8570   13.6310 hc        1 78M      0.039700
     52 H151       11.6650    2.2320   16.6620 hc        1 78M      0.032700
     53 H152       13.3740    2.6250   17.1150 hc        1 78M      0.032700
     54 H153       12.4700    3.6950   15.9650 hc        1 78M      0.032700
     55 H141       13.3160    0.7550   15.4650 hc        1 78M      0.038700
     56 H142       14.1200    2.2140   14.7700 hc        1 78M      0.038700
@<TRIPOS>BOND
     1    1    2 1   
     2    1   23 1   
     3    2    3 1   
     4    2   24 1   
     5    2   25 1   
     6    3    4 1   
     7    3    5 1   
     8    3   26 1   
     9    4   27 1   
    10    5    6 1   
    11    5   28 1   
    12    5   29 1   
    13    6    7 1   
    14    7    8 2   
    15    7    9 1   
    16    9   10 1   
    17    9   30 1   
    18    9   31 1   
    19   10   11 1   
    20   10   32 1   
    21   10   33 1   
    22   11   12 1   
    23   11   34 1   
    24   11   35 1   
    25   12   13 1   
    26   12   36 1   
    27   12   37 1   
    28   13   14 1   
    29   13   38 1   
    30   13   39 1   
    31   14   15 2   
    32   14   40 1   
    33   15   16 1   
    34   15   41 1   
    35   16   17 1   
    36   16   42 1   
    37   16   43 1   
    38   17   18 1   
    39   17   44 1   
    40   17   45 1   
    41   18   19 1   
    42   18   46 1   
    43   18   47 1   
    44   19   20 1   
    45   19   48 1   
    46   19   49 1   
    47   20   22 1   
    48   20   50 1   
    49   20   51 1   
    50   21   22 1   
    51   21   52 1   
    52   21   53 1   
    53   21   54 1   
    54   22   55 1   
    55   22   56 1   
@<TRIPOS>SUBSTRUCTURE
     1 78M         1 TEMP              0 ****  ****    0 ROOT
