@<TRIPOS>MOLECULE
78N
   56    55     1     0     0
SMALL
bcc


@<TRIPOS>ATOM
      1 O22         0.4840    0.7550   -0.4900 oh        1 78N     -0.611800
      2 C19         1.8010    0.2380   -0.3880 c3        1 78N      0.092400
      3 C18         1.9890   -0.1490    1.0840 c3        1 78N      0.140100
      4 O20         1.0350   -1.1290    1.4640 oh        1 78N     -0.599800
      5 C17         3.3670   -0.7790    1.2950 c3        1 78N      0.138400
      6 O16         3.9270   -0.1170    2.4410 os        1 78N     -0.444900
      7 C8          5.1340   -0.5840    2.8880 c         1 78N      0.634100
      8 O15         5.6760   -1.4930    2.2580 o         1 78N     -0.541000
      9 C7          5.5960    0.1180    4.1270 c3        1 78N     -0.127400
     10 C6          7.1020    0.2730    4.1350 c3        1 78N     -0.079400
     11 C5          7.5740    0.8580    5.4490 c3        1 78N     -0.079400
     12 C4          9.0780    1.0330    5.4570 c3        1 78N     -0.077400
     13 C3          9.5510    1.6150    6.7730 c3        1 78N     -0.048200
     14 C2         11.0210    1.8000    6.8070 c2        1 78N     -0.176200
     15 C1         11.6750    2.3560    7.8330 c2        1 78N     -0.171200
     16 C9         11.0100    2.8580    9.0580 c3        1 78N     -0.049200
     17 C10        12.0010    3.3770   10.0790 c3        1 78N     -0.077400
     18 C11        11.2950    3.8820   11.3190 c3        1 78N     -0.079400
     19 C12        12.2840    4.4020   12.3410 c3        1 78N     -0.079400
     20 C13        11.5780    4.9070   13.5810 c3        1 78N     -0.079400
     21 C15        11.8680    5.9320   15.8400 c3        1 78N     -0.092100
     22 C14        12.5660    5.4270   14.6030 c3        1 78N     -0.080400
     23 H22         0.3200    0.9170   -1.4250 ho        1 78N      0.410000
     24 H191        1.9170   -0.6630   -1.0460 h1        1 78N      0.037700
     25 H192        2.5480    1.0210   -0.6820 h1        1 78N      0.037700
     26 H18         1.8670    0.7650    1.7310 h1        1 78N      0.069700
     27 H20         0.1650   -0.7570    1.2660 ho        1 78N      0.421000
     28 H171        3.2840   -1.8780    1.5040 h1        1 78N      0.068200
     29 H172        4.0440   -0.6090    0.4190 h1        1 78N      0.068200
     30 H71         5.0950    1.1190    4.2020 hc        1 78N      0.079200
     31 H72         5.2610   -0.4990    5.0040 hc        1 78N      0.079200
     32 H61C        7.4170    0.9400    3.2890 hc        1 78N      0.057700
     33 H62C        7.5820   -0.7270    3.9640 hc        1 78N      0.057700
     34 H51C        7.0780    1.8490    5.6220 hc        1 78N      0.041200
     35 H52C        7.2690    0.1830    6.2930 hc        1 78N      0.041200
     36 H41C        9.5730    0.0410    5.2830 hc        1 78N      0.044700
     37 H42C        9.3830    1.7080    4.6150 hc        1 78N      0.044700
     38 H31C        9.2420    0.9380    7.6170 hc        1 78N      0.047700
     39 H32C        9.0440    2.6030    6.9510 hc        1 78N      0.047700
     40 H2         11.5730    1.4470    5.9210 ha        1 78N      0.123000
     41 H1         12.7720    2.4640    7.8000 ha        1 78N      0.123000
     42 H91C       10.2910    3.6780    8.7820 hc        1 78N      0.047700
     43 H92C       10.3960    2.0340    9.5160 hc        1 78N      0.047700
     44 H101       12.6080    4.2060    9.6270 hc        1 78N      0.041700
     45 H102       12.7160    2.5590   10.3600 hc        1 78N      0.041700
     46 H111       10.6890    3.0530   11.7710 hc        1 78N      0.039700
     47 H112       10.5800    4.7000   11.0380 hc        1 78N      0.039700
     48 H121       12.9990    3.5840   12.6210 hc        1 78N      0.039700
     49 H122       12.8900    5.2310   11.8890 hc        1 78N      0.039700
     50 H131       10.8630    5.7250   13.3000 hc        1 78N      0.039700
     51 H132       10.9720    4.0790   14.0320 hc        1 78N      0.039700
     52 H141       13.1730    6.2550   14.1490 hc        1 78N      0.038700
     53 H142       13.2810    4.6090   14.8820 hc        1 78N      0.038700
     54 H151       12.6140    6.3100   16.5800 hc        1 78N      0.032700
     55 H152       11.1690    6.7650   15.5860 hc        1 78N      0.032700
     56 H153       11.2770    5.1150   16.3200 hc        1 78N      0.032700
@<TRIPOS>BOND
     1    1    2 1   
     2    1   23 1   
     3    2    3 1   
     4    2   24 1   
     5    2   25 1   
     6    3    4 1   
     7    3    5 1   
     8    3   26 1   
     9    4   27 1   
    10    5    6 1   
    11    5   28 1   
    12    5   29 1   
    13    6    7 1   
    14    7    8 2   
    15    7    9 1   
    16    9   10 1   
    17    9   30 1   
    18    9   31 1   
    19   10   11 1   
    20   10   32 1   
    21   10   33 1   
    22   11   12 1   
    23   11   34 1   
    24   11   35 1   
    25   12   13 1   
    26   12   36 1   
    27   12   37 1   
    28   13   14 1   
    29   13   38 1   
    30   13   39 1   
    31   14   15 2   
    32   14   40 1   
    33   15   16 1   
    34   15   41 1   
    35   16   17 1   
    36   16   42 1   
    37   16   43 1   
    38   17   18 1   
    39   17   44 1   
    40   17   45 1   
    41   18   19 1   
    42   18   46 1   
    43   18   47 1   
    44   19   20 1   
    45   19   48 1   
    46   19   49 1   
    47   20   22 1   
    48   20   50 1   
    49   20   51 1   
    50   21   22 1   
    51   21   54 1   
    52   21   55 1   
    53   21   56 1   
    54   22   52 1   
    55   22   53 1   
@<TRIPOS>SUBSTRUCTURE
     1 78N         1 TEMP              0 ****  ****    0 ROOT
