@<TRIPOS>MOLECULE
78N
   56    55     1     0     0
SMALL
bcc


@<TRIPOS>ATOM
      1 O22         0.4960    0.7480   -0.5140 oh        1 78N     -0.611800
      2 C19         1.8080    0.2210   -0.4000 c3        1 78N      0.092400
      3 C18         1.9880   -0.1470    1.0780 c3        1 78N      0.140100
      4 O20         1.0240   -1.1130    1.4680 oh        1 78N     -0.599800
      5 C17         3.3590   -0.7850    1.3030 c3        1 78N      0.138400
      6 O16         3.9210   -0.1130    2.4410 os        1 78N     -0.444900
      7 C8          5.1220   -0.5840    2.8990 c         1 78N      0.634100
      8 O15         5.6590   -1.5060    2.2830 o         1 78N     -0.541000
      9 C7          5.5850    0.1310    4.1300 c3        1 78N     -0.127400
     10 C6          7.0920    0.2780    4.1400 c3        1 78N     -0.079400
     11 C5          7.5650    0.8740    5.4480 c3        1 78N     -0.079400
     12 C4          9.0690    1.0420    5.4570 c3        1 78N     -0.077400
     13 C3          9.5440    1.6350    6.7670 c3        1 78N     -0.048200
     14 C2         11.0150    1.8130    6.8020 c2        1 78N     -0.176200
     15 C1         11.6720    2.3580    7.8310 c2        1 78N     -0.171200
     16 C9         11.0100    2.8520    9.0610 c3        1 78N     -0.049200
     17 C10        12.0030    3.3770   10.0770 c3        1 78N     -0.077400
     18 C11        11.3000    3.8740   11.3220 c3        1 78N     -0.079400
     19 C12        12.2900    4.4000   12.3390 c3        1 78N     -0.079400
     20 C13        11.5880    4.8970   13.5850 c3        1 78N     -0.079400
     21 C15        11.8820    5.9190   15.8440 c3        1 78N     -0.092100
     22 C14        12.5770    5.4230   14.6020 c3        1 78N     -0.080400
     23 H22         0.3360    0.8980   -1.4530 ho        1 78N      0.410000
     24 H191        2.5620    0.9940   -0.7030 h1        1 78N      0.037700
     25 H192        1.9180   -0.6900   -1.0460 h1        1 78N      0.037700
     26 H18         1.8710    0.7770    1.7120 h1        1 78N      0.069700
     27 H20         0.1580   -0.7360    1.2610 ho        1 78N      0.421000
     28 H171        3.2650   -1.8810    1.5260 h1        1 78N      0.068200
     29 H172        4.0400   -0.6330    0.4270 h1        1 78N      0.068200
     30 H71         5.0900    1.1350    4.1920 hc        1 78N      0.079200
     31 H72         5.2460   -0.4740    5.0140 hc        1 78N      0.079200
     32 H61C        7.5670   -0.7270    3.9810 hc        1 78N      0.057700
     33 H62C        7.4120    0.9330    3.2870 hc        1 78N      0.057700
     34 H51C        7.2560    0.2100    6.2990 hc        1 78N      0.041200
     35 H52C        7.0740    1.8700    5.6090 hc        1 78N      0.041200
     36 H41C        9.3790    1.7070    4.6080 hc        1 78N      0.044700
     37 H42C        9.5600    0.0460    5.2930 hc        1 78N      0.044700
     38 H31C        9.2300    0.9680    7.6170 hc        1 78N      0.047200
     39 H32C        9.0430    2.6270    6.9350 hc        1 78N      0.047200
     40 H2         11.5650    1.4640    5.9120 ha        1 78N      0.123000
     41 H1         12.7690    2.4620    7.7980 ha        1 78N      0.123000
     42 H91C       10.4060    2.0210    9.5210 hc        1 78N      0.047700
     43 H92C       10.2820    3.6670    8.7910 hc        1 78N      0.047700
     44 H101       12.7260    2.5650   10.3520 hc        1 78N      0.041700
     45 H102       12.6000    4.2120    9.6240 hc        1 78N      0.041700
     46 H111       10.7030    3.0390   11.7760 hc        1 78N      0.039700
     47 H112       10.5760    4.6860   11.0470 hc        1 78N      0.039700
     48 H121       13.0140    3.5880   12.6140 hc        1 78N      0.039700
     49 H122       12.8870    5.2350   11.8860 hc        1 78N      0.039700
     50 H131       10.9910    4.0620   14.0380 hc        1 78N      0.039700
     51 H132       10.8640    5.7090   13.3100 hc        1 78N      0.039700
     52 H141       13.3010    4.6100   14.8750 hc        1 78N      0.038700
     53 H142       13.1750    6.2560   14.1460 hc        1 78N      0.038700
     54 H151       11.1750    6.7470   15.5960 hc        1 78N      0.032700
     55 H152       11.3020    5.0960   16.3260 hc        1 78N      0.032700
     56 H153       12.6300    6.3020   16.5800 hc        1 78N      0.032700
@<TRIPOS>BOND
     1    1    2 1   
     2    1   23 1   
     3    2    3 1   
     4    2   24 1   
     5    2   25 1   
     6    3    4 1   
     7    3    5 1   
     8    3   26 1   
     9    4   27 1   
    10    5    6 1   
    11    5   28 1   
    12    5   29 1   
    13    6    7 1   
    14    7    8 2   
    15    7    9 1   
    16    9   10 1   
    17    9   30 1   
    18    9   31 1   
    19   10   11 1   
    20   10   32 1   
    21   10   33 1   
    22   11   12 1   
    23   11   34 1   
    24   11   35 1   
    25   12   13 1   
    26   12   36 1   
    27   12   37 1   
    28   13   14 1   
    29   13   38 1   
    30   13   39 1   
    31   14   15 2   
    32   14   40 1   
    33   15   16 1   
    34   15   41 1   
    35   16   17 1   
    36   16   42 1   
    37   16   43 1   
    38   17   18 1   
    39   17   44 1   
    40   17   45 1   
    41   18   19 1   
    42   18   46 1   
    43   18   47 1   
    44   19   20 1   
    45   19   48 1   
    46   19   49 1   
    47   20   22 1   
    48   20   50 1   
    49   20   51 1   
    50   21   22 1   
    51   21   54 1   
    52   21   55 1   
    53   21   56 1   
    54   22   52 1   
    55   22   53 1   
@<TRIPOS>SUBSTRUCTURE
     1 78N         1 TEMP              0 ****  ****    0 ROOT
