@<TRIPOS>MOLECULE
78N
   56    54     1     0     0
SMALL
bcc


@<TRIPOS>ATOM
      1 O22        -8.3410   -5.6270   -5.3680 oh        1 78N     -0.339000
      2 C19        -7.1030   -5.0090   -5.6410 c3        1 78N     -0.058000
      3 C18        -6.6080   -4.3020   -4.3990 c3        1 78N      0.029000
      4 O20        -6.5640   -5.2140   -3.3270 oh        1 78N     -0.327000
      5 C17        -5.2230   -3.7520   -4.6510 c3        1 78N     -0.012000
      6 O16        -4.7630   -3.0920   -3.4950 os        1 78N     -0.283000
      7 C8         -3.5360   -2.4290   -3.6680 c2        1 78N      0.305000
      8 O15        -2.9480   -2.5080   -4.7280 o         1 78N     -0.352000
      9 C7         -2.9480   -1.6180   -2.5340 c3        1 78N     -0.155000
     10 C6         -1.4450   -1.5470   -2.6930 c3        1 78N     -0.158000
     11 C5         -0.8540   -0.7590   -1.5440 c3        1 78N     -0.158000
     12 C4          0.6420   -0.6370   -1.7340 c3        1 78N     -0.156000
     13 C3          1.2560   -0.0020   -0.5050 c3        1 78N     -0.131000
     14 C2          2.7460   -0.2620   -0.4940 c2        1 78N     -0.171000
     15 C1          3.5280    0.3370    0.4260 c1        1 78N     -0.168000
     16 C9          2.9150    1.2680    1.4480 c2        1 78N     -0.132000
     17 C10         3.9720    1.6880    2.4460 c3        1 78N     -0.156000
     18 C11         3.4130    2.7650    3.3500 c3        1 78N     -0.158000
     19 C12         4.4640    3.1710    4.3600 c3        1 78N     -0.158000
     20 C13         3.9390    4.3120    5.2030 c3        1 78N     -0.158000
     21 C15         4.4550    5.8420    7.0730 c3        1 78N     -0.210000
     22 C14         4.9920    4.7220    6.2080 c3        1 78N     -0.159000
     23 H22        -8.7030   -5.9130   -6.1280 ho        1 78N      0.209000
     24 H191       -6.4510   -5.6890   -5.9110 h1        1 78N      0.077000
     25 H192       -7.2150   -4.3580   -6.3640 h1        1 78N      0.077000
     26 H18        -7.2150   -3.5690   -4.1780 h1        1 78N      0.109000
     27 H20        -7.2460   -5.0600   -2.7790 ho        1 78N      0.220000
     28 H171       -4.6140   -4.4880   -4.8710 h1        1 78N      0.107500
     29 H172       -5.2530   -3.1190   -5.3980 h1        1 78N      0.107500
     30 H71        -3.1660   -2.0450   -1.6810 hc        1 78N      0.117500
     31 H72        -3.3210   -0.7140   -2.5520 hc        1 78N      0.117500
     32 H61C       -1.0740   -2.4520   -2.6930 hc        1 78N      0.098000
     33 H62C       -1.2270   -1.1050   -3.5380 hc        1 78N      0.098000
     34 H51C       -1.0390   -1.2220   -0.7020 hc        1 78N      0.080000
     35 H52C       -1.2530    0.1330   -1.5210 hc        1 78N      0.080000
     36 H41C        1.0270   -1.5260   -1.8680 hc        1 78N      0.084500
     37 H42C        0.8280   -0.0800   -2.5160 hc        1 78N      0.084500
     38 H31C        1.0930    0.9620   -0.5210 hc        1 78N      0.087000
     39 H32C        0.8520   -0.3890    0.2980 hc        1 78N      0.087000
     40 H2          3.1420   -0.8630   -1.1540 ha        1 78N      0.123000
     41 H1          4.4900    0.1690    0.4330 ha        1 78N      0.123000
     42 H91C        2.1900    0.8070    1.9160 ha        1 78N      0.086500
     43 H92C        2.5600    2.0600    0.9970 ha        1 78N      0.086500
     44 H101        4.2370    0.9160    2.9840 hc        1 78N      0.081000
     45 H102        4.7510    2.0350    1.9680 hc        1 78N      0.081000
     46 H111        2.6260    2.4210    3.8180 hc        1 78N      0.079000
     47 H112        3.1600    3.5420    2.8130 hc        1 78N      0.079000
     48 H121        4.6740    2.4090    4.9360 hc        1 78N      0.079000
     49 H122        5.2730    3.4570    3.8910 hc        1 78N      0.079000
     50 H131        3.1320    4.0240    5.6750 hc        1 78N      0.079000
     51 H132        3.7250    5.0720    4.6260 hc        1 78N      0.079000
     52 H141        5.7910    5.0300    5.7360 hc        1 78N      0.078000
     53 H142        5.2210    3.9560    6.7720 hc        1 78N      0.078000
     54 H151        3.7330    5.4990    7.6410 hc        1 78N      0.072000
     55 H152        4.1080    6.5580    6.5010 hc        1 78N      0.072000
     56 H153        5.1750    6.1940    7.6360 hc        1 78N      0.072000
@<TRIPOS>BOND
     1    1    2 1   
     2    1   23 1   
     3    2    3 1   
     4    2   24 1   
     5    2   25 1   
     6    3    4 1   
     7    3    5 1   
     8    3   26 1   
     9    4   27 1   
    10    5    6 1   
    11    5   28 1   
    12    5   29 1   
    13    6    7 1   
    14    7    8 1   
    15    7    9 1   
    16    9   10 1   
    17    9   30 1   
    18    9   31 1   
    19   10   11 1   
    20   10   32 1   
    21   10   33 1   
    22   11   12 1   
    23   11   34 1   
    24   11   35 1   
    25   12   13 1   
    26   12   36 1   
    27   12   37 1   
    28   13   14 1   
    29   13   38 1   
    30   13   39 1   
    31   14   15 1   
    32   14   40 1   
    33   15   41 1   
    34   16   17 1   
    35   16   42 1   
    36   16   43 1   
    37   17   18 1   
    38   17   44 1   
    39   17   45 1   
    40   18   19 1   
    41   18   46 1   
    42   18   47 1   
    43   19   20 1   
    44   19   48 1   
    45   19   49 1   
    46   20   22 1   
    47   20   50 1   
    48   20   51 1   
    49   21   22 1   
    50   21   54 1   
    51   21   55 1   
    52   21   56 1   
    53   22   52 1   
    54   22   53 1   
@<TRIPOS>SUBSTRUCTURE
     1 78N         1 TEMP              0 ****  ****    0 ROOT
