@<TRIPOS>MOLECULE
78N
   56    55     1     0     0
SMALL
bcc


@<TRIPOS>ATOM
      1 O22         9.6110    0.9040    0.9300 oh        1 78N     -0.602800
      2 C19         9.0610    0.4000   -0.2750 c3        1 78N      0.097400
      3 C18         7.5700    0.7590   -0.2780 c3        1 78N      0.118100
      4 O20         7.0090    0.4440   -1.5360 oh        1 78N     -0.596800
      5 C17         6.8670    0.0490    0.8780 c3        1 78N      0.104400
      6 O16         5.4770    0.3810    0.9100 os        1 78N     -0.432900
      7 C8          4.6230   -0.3620    0.1390 c         1 78N      0.645100
      8 O15         5.0870   -1.2980   -0.5180 o         1 78N     -0.561000
      9 C7          3.2080    0.1180    0.2270 c3        1 78N     -0.126400
     10 C6          2.2350   -1.0400    0.1760 c3        1 78N     -0.079400
     11 C5          0.8080   -0.5400    0.1240 c3        1 78N     -0.079400
     12 C4         -0.1720   -1.6940    0.0930 c3        1 78N     -0.077400
     13 C3         -1.6010   -1.1940    0.0370 c3        1 78N     -0.048200
     14 C2         -2.5820   -2.3040    0.0090 c2        1 78N     -0.176200
     15 C1         -3.9070   -2.1220   -0.0040 c2        1 78N     -0.171200
     16 C9         -4.5550   -0.7900    0.0110 c3        1 78N     -0.049200
     17 C10        -6.0660   -0.8840   -0.0480 c3        1 78N     -0.077400
     18 C11        -6.7010    0.4900   -0.0320 c3        1 78N     -0.079400
     19 C12        -8.2100    0.3980   -0.0920 c3        1 78N     -0.079400
     20 C13        -8.8450    1.7720   -0.0760 c3        1 78N     -0.079400
     21 C15       -10.9920    3.0470   -0.1200 c3        1 78N     -0.092100
     22 C14       -10.3560    1.6810   -0.1360 c3        1 78N     -0.080400
     23 H22        10.5680    0.8070    0.8570 ho        1 78N      0.406000
     24 H191        9.5570    0.8670   -1.1670 h1        1 78N      0.034200
     25 H192        9.1970   -0.7140   -0.3210 h1        1 78N      0.034200
     26 H18         7.4430    1.8740   -0.1810 h1        1 78N      0.094700
     27 H20         6.8810   -0.5140   -1.5730 ho        1 78N      0.420000
     28 H171        7.0020   -1.0620    0.8070 h1        1 78N      0.078200
     29 H172        7.2610    0.4350    1.8560 h1        1 78N      0.078200
     30 H71         3.0690    0.7110    1.1690 hc        1 78N      0.081200
     31 H72         3.0390    0.8100   -0.6420 hc        1 78N      0.081200
     32 H61C        2.4540   -1.6730   -0.7250 hc        1 78N      0.057200
     33 H62C        2.3760   -1.6900    1.0800 hc        1 78N      0.057200
     34 H51C        0.6010    0.1060    1.0180 hc        1 78N      0.041700
     35 H52C        0.6650    0.0990   -0.7870 hc        1 78N      0.041700
     36 H41C        0.0370   -2.3410   -0.7990 hc        1 78N      0.044700
     37 H42C       -0.0320   -2.3310    1.0060 hc        1 78N      0.044700
     38 H31C       -1.8050   -0.5360    0.9260 hc        1 78N      0.047200
     39 H32C       -1.7390   -0.5510   -0.8760 hc        1 78N      0.047200
     40 H2         -2.1600   -3.3220   -0.0030 ha        1 78N      0.122000
     41 H1         -4.5870   -2.9900   -0.0260 ha        1 78N      0.122000
     42 H91C       -4.2500   -0.2370    0.9430 hc        1 78N      0.047700
     43 H92C       -4.1820   -0.1820   -0.8590 hc        1 78N      0.047700
     44 H101       -6.3720   -1.4300   -0.9800 hc        1 78N      0.041700
     45 H102       -6.4410   -1.4820    0.8240 hc        1 78N      0.041700
     46 H111       -6.3940    1.0360    0.8990 hc        1 78N      0.039700
     47 H112       -6.3260    1.0880   -0.9050 hc        1 78N      0.039700
     48 H121       -8.5170   -0.1480   -1.0230 hc        1 78N      0.039700
     49 H122       -8.5850   -0.2000    0.7800 hc        1 78N      0.039700
     50 H131       -8.5390    2.3170    0.8550 hc        1 78N      0.039700
     51 H132       -8.4710    2.3700   -0.9480 hc        1 78N      0.039700
     52 H141      -10.6610    1.1340   -1.0670 hc        1 78N      0.038700
     53 H142      -10.7280    1.0810    0.7360 hc        1 78N      0.038700
     54 H151      -12.1050    2.9570   -0.1650 hc        1 78N      0.032700
     55 H152      -10.7200    3.5990    0.8120 hc        1 78N      0.032700
     56 H153      -10.6520    3.6510   -0.9960 hc        1 78N      0.032700
@<TRIPOS>BOND
     1    1    2 1   
     2    1   23 1   
     3    2    3 1   
     4    2   24 1   
     5    2   25 1   
     6    3    4 1   
     7    3    5 1   
     8    3   26 1   
     9    4   27 1   
    10    5    6 1   
    11    5   28 1   
    12    5   29 1   
    13    6    7 1   
    14    7    8 2   
    15    7    9 1   
    16    9   10 1   
    17    9   30 1   
    18    9   31 1   
    19   10   11 1   
    20   10   32 1   
    21   10   33 1   
    22   11   12 1   
    23   11   34 1   
    24   11   35 1   
    25   12   13 1   
    26   12   36 1   
    27   12   37 1   
    28   13   14 1   
    29   13   38 1   
    30   13   39 1   
    31   14   15 2   
    32   14   40 1   
    33   15   16 1   
    34   15   41 1   
    35   16   17 1   
    36   16   42 1   
    37   16   43 1   
    38   17   18 1   
    39   17   44 1   
    40   17   45 1   
    41   18   19 1   
    42   18   46 1   
    43   18   47 1   
    44   19   20 1   
    45   19   48 1   
    46   19   49 1   
    47   20   22 1   
    48   20   50 1   
    49   20   51 1   
    50   21   22 1   
    51   21   54 1   
    52   21   55 1   
    53   21   56 1   
    54   22   52 1   
    55   22   53 1   
@<TRIPOS>SUBSTRUCTURE
     1 78N         1 TEMP              0 ****  ****    0 ROOT
