@<TRIPOS>MOLECULE
78P
   35    37     1     0     0
SMALL
bcc


@<TRIPOS>ATOM
      1 C4         -0.0620   -0.0570    0.0090 ca        1 78P      0.014800
      2 C5          1.3230    0.2080   -0.0350 ca        1 78P     -0.238600
      3 C6          2.0770   -0.1300    1.1120 ca        1 78P     -0.070000
      4 C8         -2.2810   -0.3390   -0.2710 cc        1 78P      0.474800
      5 C10         1.8640    0.7950   -1.2310 c         1 78P      0.582700
      6 C13        -3.6460   -0.3060   -0.9620 c3        1 78P      0.163900
      7 C15        -4.2520    1.5010   -2.4080 c3        1 78P      0.150800
      8 C17        -4.5870    0.6330   -0.1480 c3        1 78P     -0.087400
      9 C1          1.4900   -0.6940    2.2320 ca        1 78P     -0.155000
     10 C2          0.1120   -0.9680    2.2990 ca        1 78P      0.024000
     11 C3         -0.6750   -0.6570    1.2010 ca        1 78P      0.062400
     12 N7         -2.0580   -0.8100    0.9710 nd        1 78P     -0.548100
     13 N9         -1.0870    0.1320   -0.8940 na        1 78P     -0.246300
     14 N11         3.3650    1.0580   -1.2590 n4        1 78P     -0.758400
     15 O12         1.3040    1.1320   -2.2710 o         1 78P     -0.466100
     16 N14        -3.5190    0.2430   -2.3260 n3        1 78P     -0.834200
     17 C16        -5.0250    1.7340   -1.1030 c3        1 78P     -0.104400
     18 C18        -4.1910   -1.7410   -0.9350 c3        1 78P     -0.110100
     19 H6          3.1620    0.0530    1.1410 ha        1 78P      0.118000
     20 H151       -4.9480    1.5120   -3.2900 h1        1 78P      0.054700
     21 H152       -3.4940    2.3190   -2.5610 h1        1 78P      0.054700
     22 H171       -4.0640    1.0620    0.7410 hc        1 78P      0.070200
     23 H172       -5.4650    0.0520    0.2280 hc        1 78P      0.070200
     24 H1          2.1180   -0.9410    3.1050 ha        1 78P      0.165000
     25 H2         -0.3280   -1.4190    3.2050 ha        1 78P      0.182000
     26 H9         -1.0170    0.5190   -1.8050 hn        1 78P      0.346700
     27 H111        3.6240    1.4710   -2.1630 hn        1 78P      0.465133
     28 H112        3.6180    1.7040   -0.5060 hn        1 78P      0.465133
     29 H141       -3.8500   -0.4210   -3.0000 hn        1 78P      0.380800
     30 H161       -6.1270    1.6870   -1.2860 hc        1 78P      0.062200
     31 H162       -4.7960    2.7450   -0.6860 hc        1 78P      0.062200
     32 H181       -3.5000   -2.4380   -1.4660 hc        1 78P      0.061033
     33 H182       -5.1910   -1.7770   -1.4320 hc        1 78P      0.061033
     34 H183       -4.3100   -2.0850    0.1200 hc        1 78P      0.061033
     35 H113        3.8730    0.1800   -1.1290 hn        1 78P      0.465133
@<TRIPOS>BOND
     1    1    2 ar  
     2    1   11 ar  
     3    1   13 1   
     4    2    3 ar  
     5    2    5 1   
     6    3    9 ar  
     7    3   19 1   
     8    4    6 1   
     9    4   12 2   
    10    4   13 1   
    11    5   14 1   
    12    5   15 2   
    13    6    8 1   
    14    6   16 1   
    15    6   18 1   
    16    7   16 1   
    17    7   17 1   
    18    7   20 1   
    19    7   21 1   
    20    8   17 1   
    21    8   22 1   
    22    8   23 1   
    23    9   10 ar  
    24    9   24 1   
    25   10   11 ar  
    26   10   25 1   
    27   11   12 1   
    28   13   26 1   
    29   14   27 1   
    30   14   28 1   
    31   14   35 1   
    32   16   29 1   
    33   17   30 1   
    34   17   31 1   
    35   18   32 1   
    36   18   33 1   
    37   18   34 1   
@<TRIPOS>SUBSTRUCTURE
     1 78P         1 TEMP              0 ****  ****    0 ROOT
