@<TRIPOS>MOLECULE
78P
   35    37     1     0     0
SMALL
bcc


@<TRIPOS>ATOM
      1 C4         -0.0660   -0.0590    0.0240 ca        1 78P      0.014800
      2 C5          1.3220    0.1890   -0.0230 ca        1 78P     -0.238600
      3 C6          2.0670   -0.1140    1.1390 ca        1 78P     -0.070000
      4 C8         -2.2870   -0.3300   -0.2570 cc        1 78P      0.474800
      5 C10         1.8740    0.7280   -1.2360 c         1 78P      0.582700
      6 C13        -3.6480   -0.3080   -0.9560 c3        1 78P      0.163900
      7 C15        -4.2300    1.4530   -2.4670 c3        1 78P      0.150800
      8 C17        -4.5830    0.6680   -0.1800 c3        1 78P     -0.087400
      9 C1          1.4690   -0.6330    2.2760 ca        1 78P     -0.155000
     10 C2          0.0880   -0.8910    2.3450 ca        1 78P      0.024000
     11 C3         -0.6910   -0.6110    1.2330 ca        1 78P      0.062400
     12 N7         -2.0750   -0.7590    1.0010 nd        1 78P     -0.548100
     13 N9         -1.0850    0.1060   -0.8900 na        1 78P     -0.246300
     14 N11         3.3780    0.9750   -1.2660 nz        1 78P     -0.758400
     15 O12         1.3220    1.0330   -2.2900 o         1 78P     -0.466100
     16 N14        -3.5090    0.1920   -2.3380 n7        1 78P     -0.834200
     17 C16        -5.0070    1.7390   -1.1750 c3        1 78P     -0.104400
     18 C18        -4.2070   -1.7360   -0.8820 c3        1 78P     -0.110100
     19 H6          3.1540    0.0580    1.1670 ha        1 78P      0.118000
     20 H151       -4.9210    1.4400   -3.3530 h1        1 78P      0.054700
     21 H152       -3.4640    2.2580   -2.6450 h1        1 78P      0.054700
     22 H171       -4.0600    1.1230    0.6960 hc        1 78P      0.070200
     23 H172       -5.4690    0.1080    0.2110 hc        1 78P      0.070200
     24 H1          2.0910   -0.8550    3.1600 ha        1 78P      0.165000
     25 H2         -0.3610   -1.3050    3.2640 ha        1 78P      0.182000
     26 H9         -1.0070    0.4610   -1.8140 hn        1 78P      0.346700
     27 H111        3.6450    1.3530   -2.1830 hn        1 78P      0.465133
     28 H112        3.8770    0.0970   -1.1030 hn        1 78P      0.465133
     29 H141       -3.8440   -0.4920   -2.9900 hn        1 78P      0.380800
     30 H161       -6.1090    1.6950   -1.3620 hc        1 78P      0.062200
     31 H162       -4.7700    2.7620   -0.7920 hc        1 78P      0.062200
     32 H181       -5.2050   -1.7800   -1.3820 hc        1 78P      0.061033
     33 H182       -3.5200   -2.4580   -1.3840 hc        1 78P      0.061033
     34 H183       -4.3340   -2.0420    0.1840 hc        1 78P      0.061033
     35 H113        3.6340    1.6450   -0.5360 hn        1 78P      0.465133
@<TRIPOS>BOND
     1    1    2 ar  
     2    1   11 ar  
     3    1   13 1   
     4    2    3 ar  
     5    2    5 1   
     6    3    9 ar  
     7    3   19 1   
     8    4    6 1   
     9    4   12 2   
    10    4   13 1   
    11    5   14 1   
    12    5   15 2   
    13    6    8 1   
    14    6   16 1   
    15    6   18 1   
    16    7   16 1   
    17    7   17 1   
    18    7   20 1   
    19    7   21 1   
    20    8   17 1   
    21    8   22 1   
    22    8   23 1   
    23    9   10 ar  
    24    9   24 1   
    25   10   11 ar  
    26   10   25 1   
    27   11   12 1   
    28   13   26 1   
    29   14   27 1   
    30   14   28 1   
    31   14   35 1   
    32   16   29 1   
    33   17   30 1   
    34   17   31 1   
    35   18   32 1   
    36   18   33 1   
    37   18   34 1   
@<TRIPOS>SUBSTRUCTURE
     1 78P         1 TEMP              0 ****  ****    0 ROOT
