@<TRIPOS>MOLECULE
78P
   35    37     1     0     0
SMALL
bcc


@<TRIPOS>ATOM
      1 C4         -0.0650   -0.0530    0.0230 ca        1 78P      0.014800
      2 C5          1.3210    0.2010   -0.0250 ca        1 78P     -0.238600
      3 C6          2.0690   -0.0970    1.1380 ca        1 78P     -0.070000
      4 C8         -2.2850   -0.3340   -0.2560 cc        1 78P      0.474800
      5 C10         1.8700    0.7410   -1.2390 c         1 78P      0.582700
      6 C13        -3.6470   -0.3180   -0.9530 c3        1 78P      0.163900
      7 C15        -4.2350    1.4360   -2.4700 c3        1 78P      0.150800
      8 C17        -4.5840    0.6580   -0.1800 c3        1 78P     -0.087400
      9 C1          1.4740   -0.6170    2.2750 ca        1 78P     -0.155000
     10 C2          0.0940   -0.8800    2.3460 ca        1 78P      0.024000
     11 C3         -0.6870   -0.6060    1.2340 ca        1 78P      0.062400
     12 N7         -2.0700   -0.7600    1.0030 nd        1 78P     -0.548100
     13 N9         -1.0850    0.1070   -0.8900 na        1 78P     -0.246300
     14 N11         3.3730    0.9950   -1.2700 n4        1 78P     -0.758400
     15 O12         1.3170    1.0420   -2.2930 o         1 78P     -0.466100
     16 N14        -3.5110    0.1770   -2.3370 n3        1 78P     -0.834200
     17 C16        -5.0110    1.7250   -1.1770 c3        1 78P     -0.104400
     18 C18        -4.2020   -1.7470   -0.8740 c3        1 78P     -0.110100
     19 H6          3.1550    0.0800    1.1640 ha        1 78P      0.118000
     20 H151       -3.4710    2.2420   -2.6520 h1        1 78P      0.054700
     21 H152       -4.9270    1.4170   -3.3540 h1        1 78P      0.054700
     22 H171       -5.4690    0.0970    0.2130 hc        1 78P      0.070200
     23 H172       -4.0620    1.1170    0.6950 hc        1 78P      0.070200
     24 H1          2.0970   -0.8350    3.1590 ha        1 78P      0.165000
     25 H2         -0.3520   -1.2950    3.2660 ha        1 78P      0.182000
     26 H9         -1.0100    0.4600   -1.8150 hn        1 78P      0.346700
     27 H111        3.6270    1.6660   -0.5410 hn        1 78P      0.465133
     28 H112        3.8760    0.1190   -1.1060 hn        1 78P      0.465133
     29 H141       -3.8440   -0.5100   -2.9860 hn        1 78P      0.380800
     30 H161       -4.7750    2.7490   -0.7990 hc        1 78P      0.062200
     31 H162       -6.1120    1.6790   -1.3630 hc        1 78P      0.062200
     32 H181       -3.5130   -2.4690   -1.3730 hc        1 78P      0.061033
     33 H182       -5.2000   -1.7960   -1.3730 hc        1 78P      0.061033
     34 H183       -4.3270   -2.0500    0.1940 hc        1 78P      0.061033
     35 H113        3.6380    1.3730   -2.1880 hn        1 78P      0.465133
@<TRIPOS>BOND
     1    1    2 ar  
     2    1   11 ar  
     3    1   13 1   
     4    2    3 ar  
     5    2    5 1   
     6    3    9 ar  
     7    3   19 1   
     8    4    6 1   
     9    4   12 2   
    10    4   13 1   
    11    5   14 1   
    12    5   15 2   
    13    6    8 1   
    14    6   16 1   
    15    6   18 1   
    16    7   16 1   
    17    7   17 1   
    18    7   20 1   
    19    7   21 1   
    20    8   17 1   
    21    8   22 1   
    22    8   23 1   
    23    9   10 ar  
    24    9   24 1   
    25   10   11 ar  
    26   10   25 1   
    27   11   12 1   
    28   13   26 1   
    29   14   27 1   
    30   14   28 1   
    31   14   35 1   
    32   16   29 1   
    33   17   30 1   
    34   17   31 1   
    35   18   32 1   
    36   18   33 1   
    37   18   34 1   
@<TRIPOS>SUBSTRUCTURE
     1 78P         1 TEMP              0 ****  ****    0 ROOT
