@<TRIPOS>MOLECULE
78P
   34    36     1     0     0
SMALL
bcc


@<TRIPOS>ATOM
      1 C4         -1.2260    0.2430   -0.0960 ca        1 78P     -0.028200
      2 C5         -2.5910   -0.0820    0.0020 ca        1 78P     -0.148600
      3 C6         -3.4950    0.9770   -0.0470 ca        1 78P     -0.081000
      4 C8          1.0170    0.3570   -0.2240 cc        1 78P      0.412800
      5 C10        -2.9800   -1.5080    0.1330 c         1 78P      0.682700
      6 C13         2.4380   -0.1690   -0.3270 c3        1 78P      0.158900
      7 C15         4.1030   -1.0770    1.0970 c3        1 78P      0.142800
      8 C17         3.4890    0.9590   -0.1060 c3        1 78P     -0.093400
      9 C1         -3.0690    2.3100   -0.1660 ca        1 78P     -0.171000
     10 C2         -1.7260    2.6520   -0.2460 ca        1 78P     -0.041000
     11 C3         -0.7780    1.6240   -0.2150 ca        1 78P      0.053400
     12 N7          0.6280    1.6480   -0.2900 nd        1 78P     -0.567100
     13 N9         -0.0740   -0.5350   -0.0950 na        1 78P     -0.254300
     14 N11        -4.2370   -1.8270    0.5830 n         1 78P     -0.667000
     15 O12        -2.1850   -2.4360   -0.1480 o         1 78P     -0.642100
     16 N14         2.7130   -1.2310    0.6740 n3        1 78P     -0.791200
     17 C16         4.6190    0.3120    0.6850 c3        1 78P     -0.107400
     18 C18         2.5950   -0.7200   -1.7540 c3        1 78P     -0.081100
     19 H6         -4.5790    0.7890   -0.0070 ha        1 78P      0.128000
     20 H151        4.2070   -1.2340    2.2030 h1        1 78P      0.051200
     21 H152        4.6990   -1.8770    0.5770 h1        1 78P      0.051200
     22 H171        3.8440    1.3540   -1.0880 hc        1 78P      0.067200
     23 H172        3.0560    1.8130    0.4690 hc        1 78P      0.067200
     24 H1         -3.8300    3.1050   -0.1990 ha        1 78P      0.136000
     25 H2         -1.4080    3.7010   -0.3350 ha        1 78P      0.151000
     26 H9         -0.0510   -1.5270   -0.1150 hn        1 78P      0.342700
     27 H111       -4.8750   -1.1330    0.8720 hn        1 78P      0.314000
     28 H112       -4.4860   -2.7800    0.6810 hn        1 78P      0.314000
     29 H141        2.1030   -1.1230    1.4630 hn        1 78P      0.355800
     30 H161        4.8770    0.9220    1.5850 hc        1 78P      0.049700
     31 H162        5.5420    0.2150    0.0640 hc        1 78P      0.049700
     32 H181        3.6470   -1.0550   -1.9170 hc        1 78P      0.048367
     33 H182        1.9140   -1.5870   -1.9240 hc        1 78P      0.048367
     34 H183        2.3510    0.0850   -2.4870 hc        1 78P      0.048367
@<TRIPOS>BOND
     1    1    2 ar  
     2    1   11 ar  
     3    1   13 1   
     4    2    3 ar  
     5    2    5 1   
     6    3    9 ar  
     7    3   19 1   
     8    4    6 1   
     9    4   12 2   
    10    4   13 1   
    11    5   14 1   
    12    5   15 2   
    13    6    8 1   
    14    6   16 1   
    15    6   18 1   
    16    7   16 1   
    17    7   17 1   
    18    7   20 1   
    19    7   21 1   
    20    8   17 1   
    21    8   22 1   
    22    8   23 1   
    23    9   10 ar  
    24    9   24 1   
    25   10   11 ar  
    26   10   25 1   
    27   11   12 1   
    28   13   26 1   
    29   14   27 1   
    30   14   28 1   
    31   16   29 1   
    32   17   30 1   
    33   17   31 1   
    34   18   32 1   
    35   18   33 1   
    36   18   34 1   
@<TRIPOS>SUBSTRUCTURE
     1 78P         1 TEMP              0 ****  ****    0 ROOT
