@<TRIPOS>MOLECULE
78P
   34    29     1     0     0
SMALL
bcc


@<TRIPOS>ATOM
      1 C4          1.4610    0.5710    0.6330 c1        1 78P      0.009000
      2 C5          2.8750    0.8010    0.6390 c1        1 78P     -0.126000
      3 C6          3.5480    0.9270    1.8370 c1        1 78P     -0.128500
      4 C8         -0.6400    0.0750    0.1580 c1        1 78P      0.032000
      5 C10         3.8640    0.5770   -0.5100 c2        1 78P      0.355000
      6 C13        -1.8490   -0.5980   -0.4040 c2        1 78P      0.087000
      7 C15        -3.0440   -0.7210   -2.4620 c3        1 78P     -0.084000
      8 C17        -2.9280    0.0630   -0.0700 c3        1 78P     -0.166000
      9 C1          2.8490    0.8310    3.0430 c1        1 78P     -0.128500
     10 C2          1.4620    0.6050    3.0350 c1        1 78P     -0.046000
     11 C3          0.7770    0.4770    1.8120 c1        1 78P     -0.082000
     12 N7         -0.5220    0.1700    1.5200 n1        1 78P     -0.175000
     13 N9          0.5790    0.3220   -0.3890 n1        1 78P     -0.175000
     14 N11         4.5420    1.7020   -1.1080 n         1 78P     -0.429000
     15 O12         4.1380   -0.5640   -0.8700 o         1 78P     -0.401000
     16 N14        -1.7940   -0.5930   -2.0580 n3        1 78P     -0.297000
     17 C16        -3.9170   -0.1160   -1.2950 c3        1 78P     -0.182000
     18 C18        -1.9370   -2.0380    0.1080 c3        1 78P     -0.223000
     19 H6          4.5020    1.0830    1.8430 ha        1 78P      0.130500
     20 H151       -3.2620   -1.6680   -2.5960 h1        1 78P      0.088000
     21 H152       -3.1880   -0.2100   -3.3030 h1        1 78P      0.088000
     22 H171       -3.3320   -0.3250    0.7640 hc        1 78P      0.103500
     23 H172       -2.7170    1.0180    0.0620 hc        1 78P      0.103500
     24 H1          3.3230    0.9190    3.8920 ha        1 78P      0.130500
     25 H2          0.9820    0.5390    3.8640 ha        1 78P      0.149000
     26 H9          0.7670    0.3490   -1.2610 DU        1 78P      0.297000
     27 H111        4.3420    2.5390   -0.8420 hn        1 78P      0.227000
     28 H112        5.1940    1.5630   -1.7430 hn        1 78P      0.227000
     29 H141       -1.3130   -1.2980   -2.3430 hn        1 78P      0.164000
     30 H161       -4.6340   -0.7260   -1.0600 hc        1 78P      0.090000
     31 H162       -4.2860    0.7550   -1.5620 hc        1 78P      0.090000
     32 H181       -1.0540   -2.4780    0.0140 hc        1 78P      0.091333
     33 H182       -2.2030   -2.0350    1.0520 hc        1 78P      0.091333
     34 H183       -2.5830   -2.5150   -0.4010 hc        1 78P      0.091333
@<TRIPOS>BOND
     1    1    2 1   
     2    2    5 1   
     3    3    9 1   
     4    3   19 1   
     5    4   12 1   
     6    4   13 1   
     7    5   14 1   
     8    5   15 1   
     9    6    8 1   
    10    6   16 1   
    11    6   18 1   
    12    7   16 1   
    13    7   17 1   
    14    7   20 1   
    15    7   21 1   
    16    8   17 1   
    17    8   22 1   
    18    8   23 1   
    19    9   24 1   
    20   10   11 1   
    21   10   25 1   
    22   14   27 1   
    23   14   28 1   
    24   16   29 1   
    25   17   30 1   
    26   17   31 1   
    27   18   32 1   
    28   18   33 1   
    29   18   34 1   
@<TRIPOS>SUBSTRUCTURE
     1 78P         1 TEMP              0 ****  ****    0 ROOT
