@<TRIPOS>MOLECULE
790
   25    25     1     0     0
SMALL
bcc


@<TRIPOS>ATOM
      1 C1          0.1050    0.4560   -0.0040 c3        1 790     -0.158000
      2 C2          1.6200    0.4780    0.0170 c3        1 790     -0.086000
      3 C3          2.2110   -0.0640    1.2740 ca        1 790     -0.109000
      4 C4          1.4400   -0.2320    2.4240 ca        1 790     -0.087000
      5 N5          0.0350   -0.1000    2.3960 nu        1 790     -0.281000
      6 C6         -0.4730    0.7790    1.3750 c3        1 790     -0.031000
      7 C13         3.5920   -0.3570    1.2790 ca        1 790     -0.289000
      8 C14         4.1920   -0.7970    2.4470 ca        1 790     -0.093000
      9 C15         3.4690   -0.9270    3.6240 ca        1 790     -0.339000
     10 C16         2.0800   -0.6250    3.6850 ca        1 790      0.304000
     11 O17         1.4210   -0.6840    4.7840 o         1 790     -0.600000
     12 P18        -0.2060   -0.1270    6.1240 p3        1 790      2.524000
     13 O19        -0.9700    0.6170    5.0870 o         1 790     -1.180333
     14 O20        -0.6780   -1.4770    6.5060 o         1 790     -1.180333
     15 O21         0.5660    0.6570    7.1150 o         1 790     -1.180333
     16 H11        -0.2800    1.2010   -0.7470 hc        1 790      0.049500
     17 H12        -0.2510   -0.5570   -0.3290 hc        1 790      0.049500
     18 H21A        1.9740    1.5380   -0.1110 hc        1 790      0.045000
     19 H22         2.0080   -0.0990   -0.8650 hc        1 790      0.045000
     20 HN5        -0.3540    0.0910    3.3200 hn        1 790      0.269000
     21 H61        -0.2650    1.8700    1.5920 h1        1 790      0.045500
     22 H62        -1.5920    0.6550    1.3480 h1        1 790      0.045500
     23 H13         4.1720   -0.2310    0.3580 ha        1 790      0.071000
     24 H14         5.2670   -1.0360    2.4460 ha        1 790      0.062000
     25 H15         3.9590   -1.2470    4.5510 ha        1 790      0.105000
@<TRIPOS>BOND
     1    1    2 1   
     2    1    6 1   
     3    1   16 1   
     4    1   17 1   
     5    2    3 1   
     6    2   18 1   
     7    2   19 1   
     8    3    4 1   
     9    3    7 1   
    10    4    5 1   
    11    4   10 1   
    12    5    6 1   
    13    5   20 1   
    14    6   21 1   
    15    6   22 1   
    16    7    8 1   
    17    7   23 1   
    18    8    9 1   
    19    8   24 1   
    20    9   10 1   
    21    9   25 1   
    22   10   11 1   
    23   12   13 1   
    24   12   14 1   
    25   12   15 1   
@<TRIPOS>SUBSTRUCTURE
     1 790         1 TEMP              0 ****  ****    0 ROOT
