@<TRIPOS>MOLECULE
790
   25    24     1     0     0
SMALL
bcc


@<TRIPOS>ATOM
      1 C1         -1.3210    0.1570   -2.4500 c3        1 790     -0.166000
      2 C2          0.0690    0.2130   -2.4590 c3        1 790     -0.088000
      3 C3          0.7660    0.1630   -1.0700 c2        1 790     -0.112000
      4 C4         -0.0850    0.2240    0.1190 c1        1 790     -0.086000
      5 N5         -1.5860    0.4980   -0.0910 n2        1 790     -0.282000
      6 C6         -1.9930    0.8270   -1.3520 c3        1 790     -0.030000
      7 C13         2.1280    0.0180   -0.9340 c2        1 790     -0.284000
      8 C14         2.7040   -0.0710    0.3520 c1        1 790     -0.096000
      9 C15         1.8690   -0.0110    1.5240 c1        1 790     -0.337000
     10 C16         0.4880    0.1350    1.3910 c2        1 790      0.302000
     11 O17        -0.3350    0.3220    2.5700 os        1 790     -0.601000
     12 P18        -0.4640   -0.8960    3.6190 p5        1 790      1.564500
     13 O19        -0.1140   -2.1650    2.9470 o         1 790     -0.860833
     14 O20         0.4980   -0.6610    4.8050 o         1 790     -0.860833
     15 O21        -1.8850   -0.9710    4.1300 o         1 790     -0.860833
     16 H11        -1.5730   -0.7810   -2.4170 hc        1 790      0.052500
     17 H12        -1.6300    0.5620   -3.2680 hc        1 790      0.052500
     18 H21A        0.3310    1.0680   -2.8940 hc        1 790      0.048000
     19 H22         0.3940   -0.5580   -2.9810 hc        1 790      0.048000
     20 HN5        -2.0660   -0.2090    0.2070 hn        1 790      0.265000
     21 H61        -2.9750    0.6040   -1.4190 h1        1 790      0.046000
     22 H62        -1.8480    1.7990   -1.4660 h1        1 790      0.046000
     23 H13         2.6970   -0.0230   -1.7280 ha        1 790      0.072000
     24 H14         3.6590   -0.1720    0.4470 ha        1 790      0.062000
     25 H15         2.2730   -0.0730    2.4200 ha        1 790      0.105000
@<TRIPOS>BOND
     1    1    2 1   
     2    1    6 1   
     3    1   16 1   
     4    1   17 1   
     5    2    3 1   
     6    2   18 1   
     7    2   19 1   
     8    3    4 1   
     9    3    7 1   
    10    4   10 1   
    11    5    6 1   
    12    5   20 1   
    13    6   21 1   
    14    6   22 1   
    15    7    8 1   
    16    7   23 1   
    17    8   24 1   
    18    9   10 1   
    19    9   25 1   
    20   10   11 1   
    21   11   12 1   
    22   12   13 1   
    23   12   14 1   
    24   12   15 1   
@<TRIPOS>SUBSTRUCTURE
     1 790         1 TEMP              0 ****  ****    0 ROOT
