@<TRIPOS>MOLECULE
790
   25    25     1     0     0
SMALL
bcc


@<TRIPOS>ATOM
      1 C1         -1.4650   -0.0420   -3.4130 c3        1 790     -0.158000
      2 C2          0.0290    0.1460   -3.5750 c3        1 790     -0.086000
      3 C3          0.8070   -0.1140   -2.3300 ca        1 790     -0.109000
      4 C4          0.1820   -0.1720   -1.0850 ca        1 790     -0.087000
      5 N5         -1.2240   -0.1980   -0.9640 nh        1 790     -0.281000
      6 C6         -1.9380    0.4410   -2.0400 c3        1 790     -0.031000
      7 C13         2.2070   -0.2530   -2.4450 ca        1 790     -0.289000
      8 C14         2.9720   -0.4260   -1.3030 ca        1 790     -0.093000
      9 C15         2.3920   -0.4370   -0.0420 ca        1 790     -0.339000
     10 C16         0.9890   -0.2800    0.1360 ca        1 790      0.304000
     11 O17         0.4570   -0.2280    1.3020 o         1 790     -0.599000
     12 P18        -1.0850    0.3650    2.7250 p3        1 790      2.524000
     13 O19        -2.0350    0.8420    1.6860 o         1 790     -1.180333
     14 O20        -1.3440   -0.9470    3.3610 o         1 790     -1.180333
     15 O21        -0.3220    1.3790    3.4880 o         1 790     -1.180333
     16 H11        -2.0130    0.5250   -4.2090 hc        1 790      0.049500
     17 H12        -1.7220   -1.1260   -3.5350 hc        1 790      0.049500
     18 H21A        0.2330    1.2020   -3.9050 hc        1 790      0.045000
     19 H22         0.3960   -0.5240   -4.4000 hc        1 790      0.045000
     20 HN5        -1.5400    0.1010   -0.0410 hn        1 790      0.269000
     21 H61        -1.8470    1.5680   -2.0180 h1        1 790      0.045500
     22 H62        -3.0300    0.1950   -1.9140 h1        1 790      0.045500
     23 H13         2.6710   -0.2190   -3.4360 ha        1 790      0.071000
     24 H14         4.0620   -0.5450   -1.3950 ha        1 790      0.062000
     25 H15         3.0080   -0.5460    0.8570 ha        1 790      0.105000
@<TRIPOS>BOND
     1    1    2 1   
     2    1    6 1   
     3    1   16 1   
     4    1   17 1   
     5    2    3 1   
     6    2   18 1   
     7    2   19 1   
     8    3    4 1   
     9    3    7 1   
    10    4    5 1   
    11    4   10 1   
    12    5    6 1   
    13    5   20 1   
    14    6   21 1   
    15    6   22 1   
    16    7    8 1   
    17    7   23 1   
    18    8    9 1   
    19    8   24 1   
    20    9   10 1   
    21    9   25 1   
    22   10   11 1   
    23   12   13 1   
    24   12   14 1   
    25   12   15 1   
@<TRIPOS>SUBSTRUCTURE
     1 790         1 TEMP              0 ****  ****    0 ROOT
