@<TRIPOS>MOLECULE
790
   25    25     1     0     0
SMALL
bcc


@<TRIPOS>ATOM
      1 C1          0.0520    0.5120    0.0360 c3        1 790     -0.158000
      2 C2          1.5660    0.5650    0.0300 c3        1 790     -0.086000
      3 C3          2.1910   -0.0070    1.2570 ca        1 790     -0.109000
      4 C4          1.4450   -0.2300    2.4140 ca        1 790     -0.087000
      5 N5          0.0370   -0.1270    2.4170 nh        1 790     -0.281000
      6 C6         -0.5070    0.7770    1.4350 c3        1 790     -0.031000
      7 C13         3.5770   -0.2730    1.2270 ca        1 790     -0.289000
      8 C14         4.2080   -0.7400    2.3680 ca        1 790     -0.093000
      9 C15         3.5100   -0.9240    3.5530 ca        1 790     -0.339000
     10 C16         2.1160   -0.6530    3.6490 ca        1 790      0.304000
     11 O17         1.4800   -0.7640    4.7570 o         1 790     -0.599000
     12 P18        -0.1330   -0.2860    6.1440 p3        1 790      2.524000
     13 O19        -0.9310    0.4770    5.1480 o         1 790     -1.180333
     14 O20        -0.5710   -1.6580    6.4880 o         1 790     -1.180333
     15 O21         0.6410    0.4790    7.1480 o         1 790     -1.180333
     16 H11        -0.2900   -0.4950   -0.3170 hc        1 790      0.049500
     17 H12        -0.3620    1.2750   -0.6740 hc        1 790      0.049500
     18 H21A        1.8960    1.6360   -0.0680 hc        1 790      0.045000
     19 H22         1.9490    0.0260   -0.8780 hc        1 790      0.045000
     20 HN5        -0.3380    0.0250    3.3530 hn        1 790      0.269000
     21 H61        -1.6230    0.6310    1.4250 h1        1 790      0.045500
     22 H62        -0.3160    1.8630    1.6860 h1        1 790      0.045500
     23 H13         4.1370   -0.1030    0.3010 ha        1 790      0.071000
     24 H14         5.2870   -0.9570    2.3400 ha        1 790      0.062000
     25 H15         4.0230   -1.2670    4.4590 ha        1 790      0.105000
@<TRIPOS>BOND
     1    1    2 1   
     2    1    6 1   
     3    1   16 1   
     4    1   17 1   
     5    2    3 1   
     6    2   18 1   
     7    2   19 1   
     8    3    4 1   
     9    3    7 1   
    10    4    5 1   
    11    4   10 1   
    12    5    6 1   
    13    5   20 1   
    14    6   21 1   
    15    6   22 1   
    16    7    8 1   
    17    7   23 1   
    18    8    9 1   
    19    8   24 1   
    20    9   10 1   
    21    9   25 1   
    22   10   11 1   
    23   12   13 1   
    24   12   14 1   
    25   12   15 1   
@<TRIPOS>SUBSTRUCTURE
     1 790         1 TEMP              0 ****  ****    0 ROOT
