@<TRIPOS>MOLECULE
790
   25    25     1     0     0
SMALL
bcc


@<TRIPOS>ATOM
      1 C1          0.0700    0.4590    0.0150 c3        1 790     -0.158000
      2 C2          1.5840    0.4920    0.0160 c3        1 790     -0.086000
      3 C3          2.1960   -0.0510    1.2610 ca        1 790     -0.109000
      4 C4          1.4420   -0.2310    2.4210 ca        1 790     -0.087000
      5 N5          0.0360   -0.1100    2.4130 nh        1 790     -0.281000
      6 C6         -0.4920    0.7710    1.4030 c3        1 790     -0.031000
      7 C13         3.5790   -0.3340    1.2470 ca        1 790     -0.289000
      8 C14         4.1990   -0.7740    2.4040 ca        1 790     -0.093000
      9 C15         3.4920   -0.9160    3.5900 ca        1 790     -0.339000
     10 C16         2.1020   -0.6250    3.6710 ca        1 790      0.304000
     11 O17         1.4590   -0.6960    4.7790 o         1 790     -0.599000
     12 P18        -0.1550   -0.1590    6.1430 p3        1 790      2.524000
     13 O19        -0.9380    0.5860    5.1210 o         1 790     -1.180333
     14 O20        -0.6110   -1.5150    6.5230 o         1 790     -1.180333
     15 O21         0.6240    0.6250    7.1290 o         1 790     -1.180333
     16 H11        -0.2830   -0.5550   -0.3100 hc        1 790      0.049500
     17 H12        -0.3320    1.2050   -0.7190 hc        1 790      0.049500
     18 H21A        1.9650   -0.0770   -0.8750 hc        1 790      0.045000
     19 H22         1.9280    1.5560   -0.1120 hc        1 790      0.045000
     20 HN5        -0.3420    0.0740    3.3430 hn        1 790      0.269000
     21 H61        -0.2900    1.8620    1.6230 h1        1 790      0.045500
     22 H62        -1.6110    0.6380    1.3910 h1        1 790      0.045500
     23 H13         4.1460   -0.1980    0.3190 ha        1 790      0.071000
     24 H14         5.2750   -1.0050    2.3880 ha        1 790      0.062000
     25 H15         3.9970   -1.2380    4.5090 ha        1 790      0.105000
@<TRIPOS>BOND
     1    1    2 1   
     2    1    6 1   
     3    1   16 1   
     4    1   17 1   
     5    2    3 1   
     6    2   18 1   
     7    2   19 1   
     8    3    4 1   
     9    3    7 1   
    10    4    5 1   
    11    4   10 1   
    12    5    6 1   
    13    5   20 1   
    14    6   21 1   
    15    6   22 1   
    16    7    8 1   
    17    7   23 1   
    18    8    9 1   
    19    8   24 1   
    20    9   10 1   
    21    9   25 1   
    22   10   11 1   
    23   12   13 1   
    24   12   14 1   
    25   12   15 1   
@<TRIPOS>SUBSTRUCTURE
     1 790         1 TEMP              0 ****  ****    0 ROOT
