@<TRIPOS>MOLECULE
791
   19    19     1     0     0
SMALL
bcc


@<TRIPOS>ATOM
      1 C1         -0.0450    0.1580   -0.0080 ca        1 791     -0.198000
      2 C2          1.3360   -0.0100   -0.0130 ca        1 791     -0.164000
      3 C3          2.0380   -0.1040    1.1890 ca        1 791     -0.121500
      4 C4          1.3700   -0.0320    2.4190 ca        1 791      0.038700
      5 C5         -0.0300    0.1380    2.4130 ca        1 791     -0.121500
      6 C6         -0.7240    0.2320    1.2130 ca        1 791     -0.164000
      7 C12         2.0990   -0.1310    3.7080 c3        1 791     -0.261400
      8 C13         1.9690    1.1860    4.5160 c         1 791      0.935600
      9 C14         1.6550   -1.3900    4.4960 c         1 791      0.935600
     10 O16         3.0460    1.7260    4.9190 o         1 791     -0.869300
     11 O17         0.8400    1.7260    4.7060 o         1 791     -0.869300
     12 O18         2.5700   -2.1790    4.8880 o         1 791     -0.869300
     13 O19         0.4300   -1.6460    4.6810 o         1 791     -0.869300
     14 H1         -0.5980    0.2330   -0.9530 ha        1 791      0.076000
     15 H2          1.8770   -0.0680   -0.9680 ha        1 791      0.083500
     16 H3          3.1290   -0.2370    1.1750 ha        1 791      0.154500
     17 H5         -0.5270    0.1910    3.4010 ha        1 791      0.154500
     18 H6         -1.8140    0.3650    1.2200 ha        1 791      0.083500
     19 H12         3.1990   -0.2630    3.5030 hc        1 791      0.044700
@<TRIPOS>BOND
     1    1    2 ar  
     2    1    6 ar  
     3    1   14 1   
     4    2    3 ar  
     5    2   15 1   
     6    3    4 ar  
     7    3   16 1   
     8    4    5 ar  
     9    4    7 1   
    10    5    6 ar  
    11    5   17 1   
    12    6   18 1   
    13    7    8 1   
    14    7    9 1   
    15    7   19 1   
    16    8   10 1   
    17    8   11 1   
    18    9   12 1   
    19    9   13 1   
@<TRIPOS>SUBSTRUCTURE
     1 791         1 TEMP              0 ****  ****    0 ROOT
