@<TRIPOS>MOLECULE
791
   19    16     1     0     0
SMALL
bcc


@<TRIPOS>ATOM
      1 C1         -1.1460   -0.0160   -2.4610 c1        1 791     -0.116250
      2 C2          0.2400   -0.0660   -2.4600 c1        1 791     -0.116250
      3 C3          0.9310   -0.0900   -1.2590 c1        1 791     -0.116250
      4 C4          0.2380   -0.0630   -0.0600 c1        1 791      0.072900
      5 C5         -1.1470   -0.0130   -0.0610 c1        1 791     -0.016500
      6 C6         -1.8390    0.0110   -1.2620 c1        1 791     -0.116250
      7 C12         0.9940   -0.0430    1.2510 c3        1 791     -0.295600
      8 C13         0.7910    1.2940    1.9290 c         1 791      0.935600
      9 C14         0.4790   -1.1470    2.1480 c         1 791      0.935600
     10 O16         1.7700    2.0660    2.1040 o         1 791     -0.869300
     11 O17        -0.3530    1.6250    2.3380 o         1 791     -0.869300
     12 O18         1.0630   -2.2620    2.1710 o         1 791     -0.869300
     13 O19        -0.5160   -0.9410    2.8910 o         1 791     -0.869300
     14 H1         -1.6330    0.0010   -3.3070 ha        1 791      0.031000
     15 H2          0.7280   -0.0840   -3.3050 ha        1 791      0.031000
     16 H3          1.9060   -0.1440   -1.2590 ha        1 791      0.031000
     17 H5         -1.6360    0.0050    0.7840 ha        1 791      0.140500
     18 H6         -2.8150    0.0460   -1.2630 ha        1 791      0.031000
     19 H12         1.9450   -0.1800    1.0800 hc        1 791      0.044700
@<TRIPOS>BOND
     1    1    6 3   
     2    1   14 1   
     3    2    3 3   
     4    2   15 1   
     5    3   16 1   
     6    4    5 3   
     7    4    7 1   
     8    5   17 1   
     9    6   18 1   
    10    7    8 1   
    11    7    9 1   
    12    7   19 1   
    13    8   10 1   
    14    8   11 1   
    15    9   12 1   
    16    9   13 1   
@<TRIPOS>SUBSTRUCTURE
     1 791         1 TEMP              0 ****  ****    0 ROOT
