@<TRIPOS>MOLECULE
791
   19    19     1     0     0
SMALL
bcc


@<TRIPOS>ATOM
      1 C1         -0.0350    0.0600   -0.0170 ca        1 791     -0.198000
      2 C2          1.3540   -0.0190   -0.0120 ca        1 791     -0.164000
      3 C3          2.0520   -0.0580    1.1960 ca        1 791     -0.121500
      4 C4          1.3710   -0.0180    2.4210 ca        1 791      0.038700
      5 C5         -0.0370    0.0620    2.4040 ca        1 791     -0.121500
      6 C6         -0.7260    0.1010    1.1990 ca        1 791     -0.164000
      7 C12         2.0960   -0.0590    3.7150 c3        1 791     -0.261400
      8 C13         1.8760    1.2540    4.5100 c         1 791      0.935600
      9 C14         1.7280   -1.3370    4.5120 c         1 791      0.935600
     10 O16         2.9130    1.8650    4.9150 o         1 791     -0.869300
     11 O17         0.7140    1.7220    4.6890 o         1 791     -0.869300
     12 O18         2.6890   -2.0620    4.9180 o         1 791     -0.869300
     13 O19         0.5200   -1.6690    4.6910 o         1 791     -0.869300
     14 H1         -0.5850    0.0910   -0.9660 ha        1 791      0.076000
     15 H2          1.9040   -0.0510   -0.9620 ha        1 791      0.083500
     16 H3          3.1490   -0.1210    1.1910 ha        1 791      0.154500
     17 H5         -0.5420    0.0920    3.3880 ha        1 791      0.154500
     18 H6         -1.8230    0.1630    1.1970 ha        1 791      0.083500
     19 H12         3.2040   -0.1220    3.5190 hc        1 791      0.044700
@<TRIPOS>BOND
     1    1    2 ar  
     2    1    6 ar  
     3    1   14 1   
     4    2    3 ar  
     5    2   15 1   
     6    3    4 ar  
     7    3   16 1   
     8    4    5 ar  
     9    4    7 1   
    10    5    6 ar  
    11    5   17 1   
    12    6   18 1   
    13    7    8 1   
    14    7    9 1   
    15    7   19 1   
    16    8   10 1   
    17    8   11 1   
    18    9   12 1   
    19    9   13 1   
@<TRIPOS>SUBSTRUCTURE
     1 791         1 TEMP              0 ****  ****    0 ROOT
