@<TRIPOS>MOLECULE
791
   19    19     1     0     0
SMALL
bcc


@<TRIPOS>ATOM
      1 C1         -3.4000    0.1870    0.3620 ca        1 791     -0.198000
      2 C2         -3.0030   -0.0430   -0.9520 ca        1 791     -0.164000
      3 C3         -1.6480   -0.1460   -1.2710 ca        1 791     -0.121500
      4 C4         -0.6660   -0.0190   -0.2790 ca        1 791      0.038700
      5 C5         -1.0790    0.2140    1.0490 ca        1 791     -0.121500
      6 C6         -2.4280    0.3150    1.3610 ca        1 791     -0.164000
      7 C12         0.7800   -0.1250   -0.5990 c3        1 791     -0.261400
      8 C13         1.5070    1.2120   -0.3040 c         1 791      0.935600
      9 C14         1.4130   -1.3470    0.1150 c         1 791      0.935600
     10 O16         2.2020    1.7110   -1.2430 o         1 791     -0.869300
     11 O17         1.3590    1.8060    0.8040 o         1 791     -0.869300
     12 O18         2.0590   -2.1680   -0.6080 o         1 791     -0.869300
     13 O19         1.2360   -1.5440    1.3530 o         1 791     -0.869300
     14 H1         -4.4650    0.2670    0.6140 ha        1 791      0.076000
     15 H2         -3.7590   -0.1450   -1.7430 ha        1 791      0.083500
     16 H3         -1.3440   -0.3270   -2.3110 ha        1 791      0.154500
     17 H5         -0.2770    0.3080    1.8070 ha        1 791      0.154500
     18 H6         -2.7390    0.4960    2.3990 ha        1 791      0.083500
     19 H12         0.9040   -0.3100   -1.7030 hc        1 791      0.044700
@<TRIPOS>BOND
     1    1    2 ar  
     2    1    6 ar  
     3    1   14 1   
     4    2    3 ar  
     5    2   15 1   
     6    3    4 ar  
     7    3   16 1   
     8    4    5 ar  
     9    4    7 1   
    10    5    6 ar  
    11    5   17 1   
    12    6   18 1   
    13    7    8 1   
    14    7    9 1   
    15    7   19 1   
    16    8   10 1   
    17    8   11 1   
    18    9   12 1   
    19    9   13 1   
@<TRIPOS>SUBSTRUCTURE
     1 791         1 TEMP              0 ****  ****    0 ROOT
