@<TRIPOS>MOLECULE
792
   52    54     1     0     0
SMALL
bcc


@<TRIPOS>ATOM
      1 C1          2.6950    2.6220   -1.6720 ca        1 792     -0.138000
      2 C2          3.5060    1.9990   -0.7090 ca        1 792     -0.048200
      3 C3          2.9260    1.1790    0.3290 ca        1 792     -0.087800
      4 C4          1.5420    1.0100    0.3840 ca        1 792     -0.086000
      5 C5          0.7460    1.6350   -0.5700 ca        1 792     -0.102300
      6 C6          1.3280    2.4280   -1.5850 ca        1 792     -0.109000
      7 S7          4.1620   -3.5270   -0.0910 sy        1 792      1.472200
      8 C8          2.7720   -4.0840    0.4890 ca        1 792     -0.540500
      9 C9          2.7310   -4.9330    1.6210 ca        1 792      0.057500
     10 C10         1.5480   -5.4940    2.0610 ca        1 792     -0.214500
     11 C11         0.3460   -5.1960    1.3820 ca        1 792      0.242100
     12 C12         0.3540   -4.3310    0.2680 ca        1 792     -0.214500
     13 C13         1.5520   -3.7880   -0.1560 ca        1 792      0.057500
     14 O14        -0.7650   -5.8060    1.8840 os        1 792     -0.299900
     15 C15        -2.0270   -5.4530    1.2660 c3        1 792      0.223500
     16 C16        -3.0570   -6.1570    1.9720 c1        1 792     -0.179100
     17 C17        -3.9250   -6.7370    2.5560 c1        1 792     -0.061100
     18 C18        -4.9690   -7.4210    3.2450 c3        1 792     -0.031000
     19 O19         4.0170   -2.8380   -1.2990 o         1 792     -0.611300
     20 O20         5.2290   -4.4190   -0.0000 o         1 792     -0.611300
     21 N21         4.8940    2.0000   -0.5380 na        1 792     -0.186400
     22 C22         5.1980    1.2320    0.5870 cc        1 792     -0.119100
     23 C23         4.0290    0.6980    1.1370 cd        1 792     -0.170400
     24 C24         3.9290   -0.1660    2.3180 c3        1 792     -0.017200
     25 C25         3.6460   -1.6240    1.9620 c3        1 792     -0.037500
     26 C26         3.5640   -2.4540    3.3210 c         1 792      0.925600
     27 N27         4.6810   -2.2070    1.0590 n4        1 792     -0.707900
     28 O28         2.6490   -2.1220    4.0960 o         1 792     -0.776300
     29 O29         4.4250   -3.3670    3.4480 o         1 792     -0.776300
     30 C48        -0.7290    1.4880   -0.5360 c3        1 792     -0.049800
     31 H1          3.1320    3.2430   -2.4650 ha        1 792      0.135000
     32 H4          1.0970    0.3980    1.1830 ha        1 792      0.143000
     33 H6          0.6660    2.9060   -2.3230 ha        1 792      0.132000
     34 H9          3.6670   -5.1230    2.1910 ha        1 792      0.180000
     35 H10         1.5220   -6.1460    2.9480 ha        1 792      0.166500
     36 H12        -0.5760   -4.0800   -0.2620 ha        1 792      0.166500
     37 H13         1.5630   -3.1110   -1.0320 ha        1 792      0.180000
     38 H15        -2.1730   -4.3400    1.3480 h1        1 792      0.064700
     39 H15A       -1.9970   -5.7650    0.1840 h1        1 792      0.064700
     40 H18        -5.4590   -8.1740    2.5740 hc        1 792      0.064033
     41 H18A       -5.7500   -6.6960    3.5960 hc        1 792      0.064033
     42 H18B       -4.5560   -7.9580    4.1390 hc        1 792      0.064033
     43 H22         6.2300    1.1320    0.9280 h4        1 792      0.165000
     44 H24         4.8660   -0.1020    2.9340 hc        1 792      0.086700
     45 H24A        3.0750    0.1630    2.9770 hc        1 792      0.086700
     46 H25         2.6530   -1.6930    1.4360 hx        1 792      0.081700
     47 HN27        5.3870   -2.6100    1.7060 hn        1 792      0.461300
     48 H48        -1.0510    0.8080    0.2900 hc        1 792      0.042367
     49 H48A       -1.1000    1.0690   -1.5050 hc        1 792      0.042367
     50 H48B       -1.2130    2.4840   -0.3800 hc        1 792      0.042367
     51 HN21        5.5310    2.5470   -1.0520 hn        1 792      0.301700
     52 H272        5.1180   -1.4420    0.5410 hn        1 792      0.461300
@<TRIPOS>BOND
     1    1    2 ar  
     2    1    6 ar  
     3    1   31 1   
     4    2    3 ar  
     5    2   21 1   
     6    3    4 ar  
     7    3   23 1   
     8    4    5 ar  
     9    4   32 1   
    10    5    6 ar  
    11    5   30 1   
    12    6   33 1   
    13    7    8 1   
    14    7   19 2   
    15    7   20 2   
    16    7   27 1   
    17    8    9 ar  
    18    8   13 ar  
    19    9   10 ar  
    20    9   34 1   
    21   10   11 ar  
    22   10   35 1   
    23   11   12 ar  
    24   11   14 1   
    25   12   13 ar  
    26   12   36 1   
    27   13   37 1   
    28   14   15 1   
    29   15   16 1   
    30   15   38 1   
    31   15   39 1   
    32   16   17 3   
    33   17   18 1   
    34   18   40 1   
    35   18   41 1   
    36   18   42 1   
    37   21   22 1   
    38   21   51 1   
    39   22   23 2   
    40   22   43 1   
    41   23   24 1   
    42   24   25 1   
    43   24   44 1   
    44   24   45 1   
    45   25   26 1   
    46   25   27 1   
    47   25   46 1   
    48   26   28 1   
    49   26   29 1   
    50   27   47 1   
    51   27   52 1   
    52   30   48 1   
    53   30   49 1   
    54   30   50 1   
@<TRIPOS>SUBSTRUCTURE
     1 792         1 TEMP              0 ****  ****    0 ROOT
