@<TRIPOS>MOLECULE
792
   51    53     1     0     0
SMALL
bcc


@<TRIPOS>ATOM
      1 C1          1.2360    3.5260    2.5430 ca        1 792     -0.168000
      2 C2          0.1460    2.6510    2.4360 ca        1 792     -0.066200
      3 C3         -0.6770    2.6500    1.2500 ca        1 792     -0.089800
      4 C4         -0.3880    3.5060    0.1900 ca        1 792     -0.062000
      5 C5          0.7010    4.3690    0.3070 ca        1 792     -0.128300
      6 C6          1.4920    4.3720    1.4740 ca        1 792     -0.122000
      7 S7         -2.2190   -2.0310    0.3910 sy        1 792      1.506200
      8 C8         -0.5560   -2.1790    0.0410 ca        1 792     -0.376500
      9 C9         -0.0820   -3.2660   -0.7050 ca        1 792      0.012500
     10 C10         1.2680   -3.4090   -0.9950 ca        1 792     -0.210500
     11 C11         2.1720   -2.4340   -0.5300 ca        1 792      0.164100
     12 C12         1.7220   -1.3420    0.2210 ca        1 792     -0.210500
     13 C13         0.3610   -1.2300    0.4980 ca        1 792      0.012500
     14 O14         3.4930   -2.6710   -0.8550 os        1 792     -0.327900
     15 C15         4.3910   -1.5730   -0.6020 c3        1 792      0.212500
     16 C16         5.6690   -1.9140   -1.1630 c1        1 792     -0.137100
     17 C17         6.7400   -2.1780   -1.6270 c1        1 792     -0.116100
     18 C18         8.0180   -2.4820   -2.1790 c3        1 792     -0.017000
     19 O19        -2.8350   -3.2780    0.0770 o         1 792     -0.687300
     20 O20        -2.3180   -1.6760    1.7630 o         1 792     -0.687300
     21 N21        -0.3820    1.7140    3.3350 na        1 792     -0.204400
     22 C22        -1.4620    1.0720    2.7050 cc        1 792     -0.124100
     23 C23        -1.7010    1.6400    1.4580 cd        1 792     -0.123400
     24 C24        -2.7930    1.3330    0.5220 c3        1 792     -0.024200
     25 C25        -2.3200    0.4700   -0.6650 c3        1 792      0.094500
     26 C26        -2.7860    1.1690   -2.0050 c         1 792      0.924600
     27 N27        -2.7390   -0.9090   -0.5900 n3        1 792     -0.914100
     28 O28        -2.3560    2.3400   -2.1840 o         1 792     -0.821800
     29 O29        -3.5250    0.5260   -2.7960 o         1 792     -0.821800
     30 C48         1.0410    5.2960   -0.7970 c3        1 792     -0.041800
     31 H1          1.8660    3.5420    3.4420 ha        1 792      0.114000
     32 H4         -1.0150    3.4640   -0.7260 ha        1 792      0.203000
     33 H6          2.3430    5.0670    1.5320 ha        1 792      0.111000
     34 H9         -0.8020   -4.0230   -1.0650 ha        1 792      0.160500
     35 H10         1.6410   -4.2600   -1.5810 ha        1 792      0.141500
     36 H12         2.4130   -0.5710    0.5860 ha        1 792      0.141500
     37 H13        -0.0040   -0.3690    1.0940 ha        1 792      0.160500
     38 H15         3.9860   -0.6380   -1.0810 h1        1 792      0.063200
     39 H15A        4.4780   -1.4260    0.5110 h1        1 792      0.063200
     40 H18         8.7890   -2.5680   -1.3690 hc        1 792      0.053033
     41 H18A        7.9800   -3.4540   -2.7360 hc        1 792      0.053033
     42 H18B        8.3410   -1.6790   -2.8920 hc        1 792      0.053033
     43 H22        -1.9880    0.2400    3.1860 h4        1 792      0.194000
     44 H24        -3.6360    0.8380    1.0710 hc        1 792      0.065200
     45 H24A       -3.1810    2.3030    0.0990 hc        1 792      0.065200
     46 H25        -1.1880    0.4970   -0.7010 h1        1 792      0.039700
     47 HN27       -3.3490   -1.1240   -1.3620 hn        1 792      0.488800
     48 H48         0.8670    6.3560   -0.4810 hc        1 792      0.035033
     49 H48A        2.1170    5.1910   -1.0820 hc        1 792      0.035033
     50 H48B        0.4140    5.0910   -1.7000 hc        1 792      0.035033
     51 HN21        0.1180    1.3390    4.0950 hn        1 792      0.277700
@<TRIPOS>BOND
     1    1    2 ar  
     2    1    6 ar  
     3    1   31 1   
     4    2    3 ar  
     5    2   21 1   
     6    3    4 ar  
     7    3   23 1   
     8    4    5 ar  
     9    4   32 1   
    10    5    6 ar  
    11    5   30 1   
    12    6   33 1   
    13    7    8 1   
    14    7   19 2   
    15    7   20 2   
    16    7   27 1   
    17    8    9 ar  
    18    8   13 ar  
    19    9   10 ar  
    20    9   34 1   
    21   10   11 ar  
    22   10   35 1   
    23   11   12 ar  
    24   11   14 1   
    25   12   13 ar  
    26   12   36 1   
    27   13   37 1   
    28   14   15 1   
    29   15   16 1   
    30   15   38 1   
    31   15   39 1   
    32   16   17 3   
    33   17   18 1   
    34   18   40 1   
    35   18   41 1   
    36   18   42 1   
    37   21   22 1   
    38   21   51 1   
    39   22   23 2   
    40   22   43 1   
    41   23   24 1   
    42   24   25 1   
    43   24   44 1   
    44   24   45 1   
    45   25   26 1   
    46   25   27 1   
    47   25   46 1   
    48   26   28 1   
    49   26   29 1   
    50   27   47 1   
    51   30   48 1   
    52   30   49 1   
    53   30   50 1   
@<TRIPOS>SUBSTRUCTURE
     1 792         1 TEMP              0 ****  ****    0 ROOT
