@<TRIPOS>MOLECULE
792
   51    40     1     0     0
SMALL
bcc


@<TRIPOS>ATOM
      1 C1         -0.5340    4.0840    4.2270 c1        1 792     -0.186000
      2 C2         -1.3930    2.9860    4.0290 c1        1 792     -0.041000
      3 C3         -1.3880    2.3200    2.8320 c1        1 792     -0.041000
      4 C4         -0.5180    2.7360    1.7960 c1        1 792     -0.038500
      5 C5          0.3280    3.8170    1.9940 c1        1 792     -0.468500
      6 C6          0.3210    4.4920    3.2080 c2        1 792     -0.055500
      7 S7         -0.4370   -2.6040    1.3990 ss        1 792      2.846000
      8 C8          0.3420   -2.6820   -0.2520 c1        1 792     -0.468500
      9 C9          0.9200   -1.5380   -0.8060 c2        1 792     -0.055500
     10 C10         1.5030   -1.5940   -2.0720 c1        1 792     -0.186000
     11 C11         1.5100   -2.7860   -2.7800 c1        1 792      0.116000
     12 C12         0.9330   -3.9320   -2.2260 c1        1 792     -0.188000
     13 C13         0.3490   -3.8760   -0.9610 c1        1 792     -0.038500
     14 O14         2.0880   -2.8350   -4.0980 os        1 792     -0.211000
     15 C15         1.2610   -2.2800   -5.1090 c3        1 792      0.086000
     16 C16         2.1350   -1.7620   -6.2600 c1        1 792     -0.197000
     17 C17         2.8250   -1.3530   -7.1680 c1        1 792     -0.141000
     18 C18         3.6890   -0.8390   -8.3080 c2        1 792     -0.136000
     19 O19        -0.5980   -3.9130    1.9610 o         1 792     -0.958500
     20 O20         0.4420   -1.9920    2.3630 o         1 792     -0.958500
     21 N21        -2.3490    2.3930    4.8480 n1        1 792     -0.225000
     22 C22        -2.9270    1.3640    4.1510 c1        1 792     -0.062000
     23 C23        -2.3390    1.3100    2.9020 c1        1 792     -0.136000
     24 C24        -2.9070    0.2400    2.0190 c2        1 792     -0.098000
     25 C25        -2.3730   -1.1070    2.4520 c3        1 792     -0.053000
     26 C26        -1.2510   -0.9090    3.4500 c2        1 792      0.342000
     27 N27        -1.8780   -1.8100    1.3140 n2        1 792     -0.884000
     28 O28        -1.3870   -1.3030    4.6360 o         1 792     -0.559000
     29 O29        -0.1800   -0.3490    3.0910 o         1 792     -0.559000
     30 C48         1.2400    4.4800    0.9410 c2        1 792     -0.136000
     31 H1         -0.2610    4.5520    5.0400 ha        1 792      0.130000
     32 H4         -0.6710    2.5910    0.8250 ha        1 792      0.145500
     33 H6          0.8940    5.2480    3.4490 ha        1 792      0.129000
     34 H9          0.9130   -0.6890   -0.3040 ha        1 792      0.129000
     35 H10         1.9320   -0.7960   -2.4510 ha        1 792      0.130000
     36 H12         0.9180   -4.7720   -2.7370 ha        1 792      0.143000
     37 H13         0.0000   -4.6910   -0.5470 ha        1 792      0.145500
     38 H15         0.6490   -2.9720   -5.4470 h1        1 792      0.118000
     39 H15A        0.7380   -1.5350   -4.7320 h1        1 792      0.118000
     40 H18         4.1230   -0.0010   -8.0370 ha        1 792      0.081333
     41 H18A        4.3760   -1.5080   -8.5270 ha        1 792      0.081333
     42 H18B        3.1240   -0.6750   -9.1010 ha        1 792      0.081333
     43 H22        -3.7570    1.0130    4.5560 DU        1 792      0.236500
     44 H24        -3.8870    0.2430    2.0910 ha        1 792      0.086500
     45 H24A       -2.6470    0.4110    1.0920 ha        1 792      0.086500
     46 H25        -3.0920   -1.6230    2.8670 h1        1 792      0.098000
     47 HN27       -2.3730   -1.8520    0.5590 hn        1 792      0.273000
     48 H48         1.6180    3.7830    0.3440 ha        1 792      0.081333
     49 H48A        0.7160    5.1170    0.4090 ha        1 792      0.081333
     50 H48B        1.9690    4.9540    1.3930 ha        1 792      0.081333
     51 HN21       -2.7100    2.4450    5.6850 DU        1 792      0.236500
@<TRIPOS>BOND
     1    1    6 1   
     2    1   31 1   
     3    2    3 1   
     4    4    5 1   
     5    4   32 1   
     6    5    6 1   
     7    6   33 1   
     8    7   19 1   
     9    7   20 1   
    10    8    9 1   
    11    8   13 1   
    12    9   10 1   
    13    9   34 1   
    14   10   35 1   
    15   11   12 1   
    16   11   14 1   
    17   12   36 1   
    18   13   37 1   
    19   14   15 1   
    20   15   16 1   
    21   15   38 1   
    22   15   39 1   
    23   16   17 1   
    24   18   40 1   
    25   18   41 1   
    26   18   42 1   
    27   21   22 1   
    28   22   23 1   
    29   24   25 1   
    30   24   44 1   
    31   24   45 1   
    32   25   26 1   
    33   25   27 1   
    34   25   46 1   
    35   26   28 1   
    36   26   29 1   
    37   27   47 1   
    38   30   48 1   
    39   30   49 1   
    40   30   50 1   
@<TRIPOS>SUBSTRUCTURE
     1 792         1 TEMP              0 ****  ****    0 ROOT
