@<TRIPOS>MOLECULE
792
   52    54     1     0     0
SMALL
bcc


@<TRIPOS>ATOM
      1 C1          2.8640    2.8380   -1.3030 ca        1 792     -0.138000
      2 C2          3.6460    2.1080   -0.3930 ca        1 792     -0.048200
      3 C3          3.0300    1.2280    0.5730 ca        1 792     -0.087800
      4 C4          1.6400    1.1080    0.6100 ca        1 792     -0.086000
      5 C5          0.8730    1.8380   -0.2910 ca        1 792     -0.102300
      6 C6          1.4900    2.6890   -1.2360 ca        1 792     -0.109000
      7 S7          4.0940   -3.4710   -0.2290 sy        1 792      1.472200
      8 C8          2.6820   -4.0230    0.3000 ca        1 792     -0.540500
      9 C9          2.6040   -4.9600    1.3590 ca        1 792      0.057500
     10 C10         1.3990   -5.5120    1.7470 ca        1 792     -0.214500
     11 C11         0.2120   -5.1150    1.0910 ca        1 792      0.242100
     12 C12         0.2580   -4.1630    0.0520 ca        1 792     -0.214500
     13 C13         1.4770   -3.6310   -0.3220 ca        1 792      0.057500
     14 O14        -0.9230   -5.7240    1.5390 os        1 792     -0.299900
     15 C15        -2.1680   -5.2760    0.9480 c3        1 792      0.223500
     16 C16        -3.2260   -5.9980    1.5910 c1        1 792     -0.179100
     17 C17        -4.1190   -6.5920    2.1230 c1        1 792     -0.061100
     18 C18        -5.1910   -7.2920    2.7510 c3        1 792     -0.031000
     19 O19         3.9810   -2.6810   -1.3770 o         1 792     -0.611300
     20 O20         5.1280   -4.4070   -0.2090 o         1 792     -0.611300
     21 N21         5.0320    2.0430   -0.2180 na        1 792     -0.186400
     22 C22         5.3000    1.1740    0.8400 cc        1 792     -0.119100
     23 C23         4.1090    0.6410    1.3410 cd        1 792     -0.170400
     24 C24         3.9700   -0.3130    2.4480 c3        1 792     -0.017200
     25 C25         3.6360   -1.7250    1.9720 c3        1 792     -0.037500
     26 C26         3.5150   -2.6600    3.2570 c         1 792      0.925600
     27 N27         4.6540   -2.2700    1.0270 ny        1 792     -0.707900
     28 O28         2.6080   -2.3600    4.0540 o         1 792     -0.776800
     29 O29         4.3420   -3.6110    3.3120 o         1 792     -0.776800
     30 C48        -0.6060    1.7440   -0.2740 c3        1 792     -0.049800
     31 H1          3.3290    3.5050   -2.0410 ha        1 792      0.135000
     32 H4          1.1680    0.4490    1.3540 ha        1 792      0.143000
     33 H6          0.8510    3.2510   -1.9340 ha        1 792      0.132000
     34 H9          3.5290   -5.2300    1.9130 ha        1 792      0.180000
     35 H10         1.3450   -6.2330    2.5780 ha        1 792      0.166500
     36 H12        -0.6590   -3.8360   -0.4580 ha        1 792      0.166500
     37 H13         1.5170   -2.8860   -1.1390 ha        1 792      0.180000
     38 H15        -2.2740   -4.1690    1.1210 h1        1 792      0.064700
     39 H15A       -2.1430   -5.4990   -0.1550 h1        1 792      0.064700
     40 H18        -5.6890   -7.9850    2.0240 hc        1 792      0.064033
     41 H18A       -4.8060   -7.8980    3.6120 hc        1 792      0.064033
     42 H18B       -5.9570   -6.5710    3.1380 hc        1 792      0.064033
     43 H22         6.3260    1.0080    1.1750 h4        1 792      0.165000
     44 H24         3.1250   -0.0070    3.1290 hc        1 792      0.086700
     45 H24A        4.9050   -0.3340    3.0700 hc        1 792      0.086700
     46 H25         2.6440   -1.7140    1.4390 hx        1 792      0.081700
     47 HN27        5.1220   -1.4820    0.5750 hn        1 792      0.461300
     48 H48        -0.9870    1.4160   -1.2740 hc        1 792      0.042367
     49 H48A       -1.0540    2.7430   -0.0420 hc        1 792      0.042367
     50 H48B       -0.9590    1.0150    0.4950 hc        1 792      0.042367
     51 HN21        5.6920    2.6060   -0.6840 hn        1 792      0.301700
     52 H272        5.3410   -2.7500    1.6410 hn        1 792      0.461300
@<TRIPOS>BOND
     1    1    2 ar  
     2    1    6 ar  
     3    1   31 1   
     4    2    3 ar  
     5    2   21 1   
     6    3    4 ar  
     7    3   23 1   
     8    4    5 ar  
     9    4   32 1   
    10    5    6 ar  
    11    5   30 1   
    12    6   33 1   
    13    7    8 1   
    14    7   19 2   
    15    7   20 2   
    16    7   27 1   
    17    8    9 ar  
    18    8   13 ar  
    19    9   10 ar  
    20    9   34 1   
    21   10   11 ar  
    22   10   35 1   
    23   11   12 ar  
    24   11   14 1   
    25   12   13 ar  
    26   12   36 1   
    27   13   37 1   
    28   14   15 1   
    29   15   16 1   
    30   15   38 1   
    31   15   39 1   
    32   16   17 3   
    33   17   18 1   
    34   18   40 1   
    35   18   41 1   
    36   18   42 1   
    37   21   22 1   
    38   21   51 1   
    39   22   23 2   
    40   22   43 1   
    41   23   24 1   
    42   24   25 1   
    43   24   44 1   
    44   24   45 1   
    45   25   26 1   
    46   25   27 1   
    47   25   46 1   
    48   26   28 1   
    49   26   29 1   
    50   27   47 1   
    51   27   52 1   
    52   30   48 1   
    53   30   49 1   
    54   30   50 1   
@<TRIPOS>SUBSTRUCTURE
     1 792         1 TEMP              0 ****  ****    0 ROOT
