@<TRIPOS>MOLECULE
792
   52    54     1     0     0
SMALL
bcc


@<TRIPOS>ATOM
      1 C1          2.8030    2.9220   -1.0470 ca        1 792     -0.138000
      2 C2          3.5890    2.1510   -0.1750 ca        1 792     -0.048200
      3 C3          2.9780    1.2150    0.7400 ca        1 792     -0.087800
      4 C4          1.5890    1.0810    0.7660 ca        1 792     -0.086000
      5 C5          0.8180    1.8520   -0.0970 ca        1 792     -0.102300
      6 C6          1.4300    2.7580   -0.9930 ca        1 792     -0.109000
      7 S7          4.0840   -3.4250   -0.3080 sy        1 792      1.472200
      8 C8          2.6750   -4.0170    0.1860 ca        1 792     -0.540500
      9 C9          2.6030   -5.0090    1.1930 ca        1 792      0.057500
     10 C10         1.4010   -5.5920    1.5480 ca        1 792     -0.214500
     11 C11         0.2130   -5.1710    0.9110 ca        1 792      0.242100
     12 C12         0.2530   -4.1630   -0.0760 ca        1 792     -0.214500
     13 C13         1.4680   -3.6020   -0.4180 ca        1 792      0.057500
     14 O14        -0.9180   -5.8120    1.3210 os        1 792     -0.299900
     15 C15        -2.1650   -5.3440    0.7510 c3        1 792      0.223500
     16 C16        -3.2190   -6.1080    1.3510 c1        1 792     -0.179100
     17 C17        -4.1070   -6.7380    1.8480 c1        1 792     -0.061100
     18 C18        -5.1750   -7.4790    2.4340 c3        1 792     -0.031000
     19 O19         3.9670   -2.5750   -1.4130 o         1 792     -0.611300
     20 O20         5.1250   -4.3510   -0.3360 o         1 792     -0.611300
     21 N21         4.9740    2.0880   -0.0000 na        1 792     -0.186400
     22 C22         5.2480    1.1670    1.0120 cc        1 792     -0.119100
     23 C23         4.0600    0.5970    1.4800 cd        1 792     -0.170400
     24 C24         3.9260   -0.4160    2.5330 c3        1 792     -0.017200
     25 C25         3.6050   -1.8030    1.9810 c3        1 792     -0.037500
     26 C26         3.4900   -2.8060    3.2150 c         1 792      0.925600
     27 N27         4.6300   -2.2880    1.0120 n4        1 792     -0.707900
     28 O28         2.5780   -2.5570    4.0240 o         1 792     -0.776800
     29 O29         4.3250   -3.7520    3.2210 o         1 792     -0.776800
     30 C48        -0.6600    1.7440   -0.0900 c3        1 792     -0.049800
     31 H1          3.2640    3.6310   -1.7470 ha        1 792      0.135000
     32 H4          1.1210    0.3790    1.4730 ha        1 792      0.143000
     33 H6          0.7880    3.3500   -1.6620 ha        1 792      0.132000
     34 H9          3.5290   -5.3000    1.7350 ha        1 792      0.180000
     35 H10         1.3510   -6.3560    2.3380 ha        1 792      0.166500
     36 H12        -0.6660   -3.8170   -0.5700 ha        1 792      0.166500
     37 H13         1.5040   -2.8140   -1.1940 ha        1 792      0.180000
     38 H15        -2.1350   -5.5070   -0.3620 h1        1 792      0.064700
     39 H15A       -2.2820   -4.2490    0.9830 h1        1 792      0.064700
     40 H18        -4.7820   -8.1460    3.2470 hc        1 792      0.064033
     41 H18A       -5.6810   -8.1170    1.6640 hc        1 792      0.064033
     42 H18B       -5.9360   -6.7870    2.8810 hc        1 792      0.064033
     43 H22         6.2740    0.9910    1.3410 h4        1 792      0.165000
     44 H24         3.0770   -0.1540    3.2270 hc        1 792      0.086700
     45 H24A        4.8600   -0.4630    3.1560 hc        1 792      0.086700
     46 H25         2.6150   -1.7720    1.4470 hx        1 792      0.081700
     47 HN27        5.0930   -1.4730    0.6040 hn        1 792      0.461300
     48 H48        -1.0090    0.9710    0.6370 hc        1 792      0.042367
     49 H48A       -1.0350    1.4690   -1.1070 hc        1 792      0.042367
     50 H48B       -1.1170    2.7250    0.1960 hc        1 792      0.042367
     51 HN21        5.6310    2.6810   -0.4330 hn        1 792      0.301700
     52 H272        5.3210   -2.7950    1.6010 hn        1 792      0.461300
@<TRIPOS>BOND
     1    1    2 ar  
     2    1    6 ar  
     3    1   31 1   
     4    2    3 ar  
     5    2   21 1   
     6    3    4 ar  
     7    3   23 1   
     8    4    5 ar  
     9    4   32 1   
    10    5    6 ar  
    11    5   30 1   
    12    6   33 1   
    13    7    8 1   
    14    7   19 2   
    15    7   20 2   
    16    7   27 1   
    17    8    9 ar  
    18    8   13 ar  
    19    9   10 ar  
    20    9   34 1   
    21   10   11 ar  
    22   10   35 1   
    23   11   12 ar  
    24   11   14 1   
    25   12   13 ar  
    26   12   36 1   
    27   13   37 1   
    28   14   15 1   
    29   15   16 1   
    30   15   38 1   
    31   15   39 1   
    32   16   17 3   
    33   17   18 1   
    34   18   40 1   
    35   18   41 1   
    36   18   42 1   
    37   21   22 1   
    38   21   51 1   
    39   22   23 2   
    40   22   43 1   
    41   23   24 1   
    42   24   25 1   
    43   24   44 1   
    44   24   45 1   
    45   25   26 1   
    46   25   27 1   
    47   25   46 1   
    48   26   28 1   
    49   26   29 1   
    50   27   47 1   
    51   27   52 1   
    52   30   48 1   
    53   30   49 1   
    54   30   50 1   
@<TRIPOS>SUBSTRUCTURE
     1 792         1 TEMP              0 ****  ****    0 ROOT
