@<TRIPOS>MOLECULE
793
   38    38     1     0     0
SMALL
bcc


@<TRIPOS>ATOM
      1 C1          0.0950   -0.5030    0.4370 c3        1 793     -0.248000
      2 C2          1.1550   -0.1140   -0.5870 c3        1 793     -0.027000
      3 C3          2.2190    0.7420    0.0540 c2        1 793     -0.140000
      4 C4          3.4840    0.2990    0.0970 c2        1 793     -0.156000
      5 C5          3.5930    2.3530    3.8660 c1        1 793      0.322000
      6 C6          3.0300    1.8270    2.7890 c2        1 793     -0.515000
      7 C11         2.4220    0.9290   -4.6880 cv        1 793      0.240000
      8 C12         1.1800    0.1380   -4.2590 cv        1 793      0.280000
      9 C13         4.3720    3.0360   -3.0930 c2        1 793     -0.069000
     10 C14         4.6080    4.3730   -2.4490 c3        1 793     -0.225000
     11 C15         3.5310    5.3870   -2.4270 c1        1 793      0.144000
     12 C16         1.2150    5.2290   -3.4080 c1        1 793      0.225000
     13 C17         5.1840    2.5710   -4.0590 c2        1 793     -0.164000
     14 C7          2.1620    2.4800    1.8470 c2        1 793      0.020000
     15 C8          1.7890    1.9980    0.6470 c2        1 793     -0.238000
     16 N1          0.5030    0.5840   -1.7700 n4        1 793      0.090000
     17 C9          1.3320    0.7310   -2.9080 cv        1 793     -0.461000
     18 C10         2.4830    1.4760   -3.2370 cv        1 793      0.112000
     19 N2          3.2640    2.3080   -2.5670 nh        1 793     -0.173000
     20 N3          2.3360    5.1840   -2.9710 n2        1 793     -0.362000
     21 H1         -0.6840   -1.1680   -0.0110 hc        1 793      0.118667
     22 H1A         1.6250   -1.0540   -1.0130 hx        1 793      0.152000
     23 H1B         0.6000   -1.0670    1.2620 hc        1 793      0.118667
     24 H2         -0.3940    0.3980    0.8820 hc        1 793      0.118667
     25 H4          3.7980   -0.6580   -0.3450 ha        1 793      0.143500
     26 H5          4.2850    0.8710    0.5900 ha        1 793      0.143500
     27 H6          3.2390    0.7460    2.6130 ha        1 793      0.200000
     28 H14         4.9290    4.2410   -1.3730 hc        1 793      0.169000
     29 H15         5.4750    4.8860   -2.9670 hc        1 793      0.169000
     30 H16         6.0280    3.1770   -4.4220 ha        1 793      0.155500
     31 H17         5.0650    1.5970   -4.5550 ha        1 793      0.155500
     32 H7          1.7630    3.4630    2.1700 ha        1 793      0.149000
     33 H8          1.0780    2.5980    0.0540 ha        1 793      0.114000
     34 HN2         3.0760    2.4560   -1.5900 hn        1 793      0.259000
     35 H151        0.1680    1.5070   -1.4640 hn        1 793      0.249500
     36 O1          3.0970    1.0990   -5.6720 o         1 793     -0.133000
     37 H12        -0.3150    0.0220   -2.0560 hn        1 793      0.249500
     38 O2          0.4050   -0.6350   -4.7770 o         1 793     -0.187000
@<TRIPOS>BOND
     1    1    2 1   
     2    1   21 1   
     3    1   23 1   
     4    1   24 1   
     5    2    3 1   
     6    2   16 1   
     7    2   22 1   
     8    3    4 1   
     9    3   15 1   
    10    4   25 1   
    11    4   26 1   
    12    5    6 1   
    13    6   14 1   
    14    6   27 1   
    15    7    8 1   
    16    7   18 1   
    17    7   36 1   
    18    8   17 1   
    19    8   38 1   
    20    9   10 1   
    21    9   13 1   
    22    9   19 1   
    23   10   11 1   
    24   10   28 1   
    25   10   29 1   
    26   11   20 1   
    27   12   20 1   
    28   13   30 1   
    29   13   31 1   
    30   14   15 1   
    31   14   32 1   
    32   15   33 1   
    33   16   17 1   
    34   16   35 1   
    35   16   37 1   
    36   17   18 1   
    37   18   19 1   
    38   19   34 1   
@<TRIPOS>SUBSTRUCTURE
     1 793         1 TEMP              0 ****  ****    0 ROOT
