@<TRIPOS>MOLECULE
793
   38    37     1     0     0
SMALL
bcc


@<TRIPOS>ATOM
      1 C1          0.1350   -0.7970   -0.4750 c3        1 793     -0.250000
      2 C2          1.3920    0.0510   -0.3590 c3        1 793     -0.030000
      3 C3          1.8550    0.1900    1.0700 c2        1 793     -0.131000
      4 C4          3.2120   -0.3420    1.3290 c3        1 793     -0.199000
      5 C5          3.3330    2.4690    4.2330 c1        1 793      0.270000
      6 C6          2.3920    1.7090    3.8010 c1        1 793     -0.573000
      7 C11         1.7450    1.5990   -4.4180 cv        1 793      0.238000
      8 C12         0.6730    1.0100   -3.4930 cv        1 793      0.287000
      9 C13         4.4730    3.2080   -3.9170 c2        1 793     -0.378000
     10 C14         4.9120    4.6520   -3.8140 c3        1 793     -0.206000
     11 C15         3.8990    5.7240   -3.7740 c1        1 793      0.153000
     12 C16         1.3930    5.5590   -3.9410 c1        1 793      0.236000
     13 C17         4.9990    2.4850   -4.9270 c1        1 793      0.348000
     14 C7          1.4090    0.9270    3.4070 c2        1 793      0.180000
     15 C8          1.0540    0.7240    2.0070 c2        1 793     -0.142000
     16 N1          1.1750    1.4450   -0.9520 ny        1 793      0.083000
     17 C9          1.4570    1.5200   -2.3380 cv        1 793     -0.456000
     18 C10         2.4770    2.0780   -3.1310 cv        1 793      0.096000
     19 N2          3.6040    2.7360   -2.9020 nu        1 793     -0.143000
     20 N3          2.5940    5.5070   -3.8590 n2        1 793     -0.362000
     21 H1         -0.2100   -0.8670   -1.5380 hc        1 793      0.123333
     22 H1A         0.3760   -1.8280   -0.1140 hc        1 793      0.123333
     23 H1B        -0.6970   -0.3920    0.1520 hc        1 793      0.123333
     24 H2          2.2130   -0.4260   -0.9770 hx        1 793      0.157000
     25 H4          3.2290   -1.4490    1.1590 hc        1 793      0.109333
     26 H5          3.9600    0.1300    0.6430 hc        1 793      0.109333
     27 H6          3.5310   -0.1430    2.3840 hc        1 793      0.109333
     28 H14         5.5480    4.7900   -2.8890 hc        1 793      0.173500
     29 H15         5.5810    4.9150   -4.6910 hc        1 793      0.173500
     30 H16         6.2450    3.6620   -6.5050 ha        1 793      0.012500
     31 H17         6.6960    3.6260   -5.9960 ha        1 793      0.012500
     32 H7          0.7540    0.4010    4.1360 ha        1 793      0.161000
     33 H8          0.0220    1.0440    1.7660 ha        1 793      0.146000
     34 HN2         3.8710    2.9730   -1.9670 hn        1 793      0.255000
     35 H151        1.7620    2.1150   -0.4390 hn        1 793      0.245000
     36 O1          1.9930    1.6990   -5.5910 o         1 793     -0.117000
     37 H12         0.1870    1.7040   -0.8130 hn        1 793      0.245000
     38 O2         -0.3610    0.3950   -3.6290 o         1 793     -0.184000
@<TRIPOS>BOND
     1    1    2 1   
     2    1   21 1   
     3    1   22 1   
     4    1   23 1   
     5    2    3 1   
     6    2   16 1   
     7    2   24 1   
     8    3    4 1   
     9    3   15 1   
    10    4   25 1   
    11    4   26 1   
    12    4   27 1   
    13    5    6 1   
    14    6   14 1   
    15    7    8 1   
    16    7   18 1   
    17    7   36 1   
    18    8   17 1   
    19    8   38 1   
    20    9   10 1   
    21    9   13 1   
    22    9   19 1   
    23   10   11 1   
    24   10   28 1   
    25   10   29 1   
    26   11   20 1   
    27   12   20 1   
    28   14   15 1   
    29   14   32 1   
    30   15   33 1   
    31   16   17 1   
    32   16   35 1   
    33   16   37 1   
    34   17   18 1   
    35   18   19 1   
    36   19   34 1   
    37   30   31 1   
@<TRIPOS>SUBSTRUCTURE
     1 793         1 TEMP              0 ****  ****    0 ROOT
