@<TRIPOS>MOLECULE
793
   37    33     1     0     0
SMALL
bcc


@<TRIPOS>ATOM
      1 C1         -2.3130   -1.0460    1.5970 c3        1 793     -0.211000
      2 C2         -1.2560   -1.4590    0.5920 c3        1 793      0.037000
      3 C3         -0.1250   -2.1720    1.3110 c2        1 793     -0.123000
      4 C4          0.3350   -3.3970    0.8380 c2        1 793     -0.110000
      5 C5          1.3350   -4.0760    1.5260 c1        1 793     -0.128000
      6 C6          1.8750   -3.5310    2.6860 c1        1 793     -0.134000
      7 C11         0.3880   -0.2840   -2.4470 c1        1 793      0.235000
      8 C12        -0.6670   -1.1510   -2.6600 c1        1 793      0.226000
      9 C13         0.0220    2.7580   -1.0850 c1        1 793      0.111000
     10 C14         1.3360    3.0630   -0.8550 c1        1 793     -0.213000
     11 C15         1.8670    4.2540   -1.3380 c1        1 793     -0.041000
     12 C16        -0.2350    4.8150   -2.2720 c1        1 793     -0.134000
     13 C17        -0.7680    3.6250   -1.7900 c1        1 793     -0.134000
     14 C7          1.4150   -2.3060    3.1590 c1        1 793     -0.134000
     15 C8          0.4150   -1.6260    2.4710 c1        1 793     -0.123000
     16 N1         -0.7460   -0.2990   -0.0670 n3        1 793     -0.238000
     17 C9         -1.1720    0.0110   -1.4150 c2        1 793     -0.065000
     18 C10        -0.8370    0.4670   -1.5770 c2        1 793     -0.102000
     19 O1          1.3800    0.0730   -3.0560 o         1 793     -0.231000
     20 O2         -0.9780   -1.3520   -3.8210 o         1 793     -0.234000
     21 N2         -0.5170    1.5030   -0.6260 n3        1 793     -0.226000
     22 N3          1.0780    5.1190   -2.0420 n1        1 793     -0.159000
     23 H1         -1.9550   -0.3400    2.1790 hc        1 793      0.087000
     24 H1A        -3.1050   -0.7070    1.1210 hc        1 793      0.087000
     25 H1B        -2.5680   -1.8230    2.1440 hc        1 793      0.087000
     26 H2         -1.6550   -2.0640   -0.0720 h1        1 793      0.128000
     27 H4         -0.0450   -3.7820    0.0210 ha        1 793      0.147000
     28 H5          1.6590   -4.9390    1.1930 ha        1 793      0.137000
     29 H6          2.5800   -4.0100    3.1710 ha        1 793      0.142000
     30 H14         1.9030    2.4420   -0.3500 ha        1 793      0.161000
     31 H15         2.8090    4.4730   -1.1740 ha        1 793      0.163000
     32 H16        -0.8000    5.4370   -2.7780 ha        1 793      0.142000
     33 H17        -1.7100    3.4080   -1.9560 ha        1 793      0.142000
     34 H7          1.7950   -1.9220    3.9760 ha        1 793      0.142000
     35 H8          0.0910   -0.7650    2.8040 ha        1 793      0.127000
     36 HN2        -0.7310    1.3940    0.2580 hn        1 793      0.231000
     37 H151       -0.0970    0.2090    0.3360 hn        1 793      0.205000
@<TRIPOS>BOND
     1    1    2 1   
     2    1   23 1   
     3    1   24 1   
     4    1   25 1   
     5    2    3 1   
     6    2   16 1   
     7    2   26 1   
     8    3    4 1   
     9    3   15 1   
    10    4    5 1   
    11    4   27 1   
    12    5   28 1   
    13    6   14 1   
    14    6   29 1   
    15    7   18 1   
    16    7   19 1   
    17    8   17 1   
    18    8   20 1   
    19    9   10 1   
    20    9   21 1   
    21   10   30 1   
    22   11   22 1   
    23   11   31 1   
    24   12   13 1   
    25   12   32 1   
    26   13   33 1   
    27   14   34 1   
    28   15   35 1   
    29   16   17 1   
    30   16   37 1   
    31   17   18 1   
    32   18   21 1   
    33   21   36 1   
@<TRIPOS>SUBSTRUCTURE
     1 793         1 TEMP              0 ****  ****    0 ROOT
