@<TRIPOS>MOLECULE
793
   37    39     1     0     0
SMALL
bcc


@<TRIPOS>ATOM
      1 C1          0.1400    0.7850    1.4770 cx        1 793     -0.166000
      2 C2          0.8500    0.5910    0.1700 cx        1 793     -0.001000
      3 C3          1.5920    0.3300    1.5120 cx        1 793     -0.156000
      4 C4          1.8780   -1.0790    1.8090 c2        1 793     -0.071500
      5 C5          2.9590   -1.4370    2.5430 c2        1 793     -0.194500
      6 C6          3.8000   -0.4630    3.1660 c1        1 793     -0.051000
      7 C11         2.5210    1.0590   -3.8110 cv        1 793      0.248000
      8 C12         1.9180    0.1780   -2.7030 cv        1 793      0.229000
      9 C13         3.4990    4.1440   -3.7880 c2        1 793      0.071000
     10 C14         3.3530    5.5660   -4.3030 c3        1 793     -0.184000
     11 C15         3.7790    5.6410   -5.7530 c1        1 793     -0.071000
     12 C16         5.2970    3.8380   -5.3870 c2        1 793     -0.059000
     13 C17         4.6080    3.5440   -4.2890 c1        1 793     -0.283000
     14 C7          3.6630    0.8890    2.7130 c2        1 793     -0.194500
     15 C8          2.5930    1.2910    1.9870 c2        1 793     -0.071500
     16 N1          1.1430    1.6860   -0.6860 nh        1 793     -0.214000
     17 C9          1.7550    1.4320   -1.8850 cv        1 793     -0.099000
     18 C10         2.2960    2.2350   -2.8930 cv        1 793     -0.057000
     19 O2          1.6520   -0.9960   -2.5340 o         1 793     -0.230000
     20 N2          2.5170    3.5760   -3.0060 nh        1 793     -0.206000
     21 N3          4.6190    4.7610   -6.2640 n3        1 793     -0.178000
     22 H1          0.5240   -2.5330   -0.6560 ha        1 793      0.001000
     23 H1A         0.5550   -2.7160   -1.3070 ha        1 793      0.001000
     24 H1B        -0.6450    0.0560    1.7530 hc        1 793      0.131500
     25 H2         -0.0870    1.8030    1.8420 hc        1 793      0.131500
     26 H4          0.6120   -0.3310   -0.4210 h1        1 793      0.173000
     27 H5          1.1620   -1.8180    1.4130 ha        1 793      0.125000
     28 H6          3.1870   -2.4980    2.7370 ha        1 793      0.150500
     29 H14         3.9770    6.3020   -3.7300 hc        1 793      0.139000
     30 H15         2.2840    5.9020   -4.2490 hc        1 793      0.139000
     31 H16         4.8560    4.7870   -7.2300 hn        1 793      0.254000
     32 H17         6.3120    3.5230   -5.6580 h4        1 793      0.173000
     33 H7          2.4130    2.3540    1.7600 ha        1 793      0.125000
     34 H8          4.4300    1.6090    3.0420 ha        1 793      0.150500
     35 HN2         1.9340    4.1870   -2.4780 hn        1 793      0.240000
     36 H151        1.4570    2.5160   -0.2230 hn        1 793      0.206000
     37 O1          2.9480    0.8750   -4.9300 o         1 793     -0.203000
@<TRIPOS>BOND
     1    1    2 1   
     2    1    3 1   
     3    1   24 1   
     4    1   25 1   
     5    2    3 1   
     6    2   16 1   
     7    2   26 1   
     8    3    4 1   
     9    3   15 1   
    10    4    5 1   
    11    4   27 1   
    12    5    6 1   
    13    5   28 1   
    14    6   14 1   
    15    7    8 1   
    16    7   18 1   
    17    7   37 1   
    18    8   17 1   
    19    8   19 1   
    20    9   10 1   
    21    9   13 1   
    22    9   20 1   
    23   10   11 1   
    24   10   29 1   
    25   10   30 1   
    26   11   21 1   
    27   12   13 1   
    28   12   21 1   
    29   12   32 1   
    30   14   15 1   
    31   14   34 1   
    32   15   33 1   
    33   16   17 1   
    34   16   36 1   
    35   17   18 1   
    36   18   20 1   
    37   20   35 1   
    38   21   31 1   
    39   22   23 1   
@<TRIPOS>SUBSTRUCTURE
     1 793         1 TEMP              0 ****  ****    0 ROOT
