@<TRIPOS>MOLECULE
793
   37    39     1     0     0
SMALL
bcc


@<TRIPOS>ATOM
      1 C1         -3.2700   -0.8400   -2.6160 c3        1 793     -0.093100
      2 C2         -2.5980   -0.8180   -1.2410 c3        1 793      0.241800
      3 C3         -3.4090    0.0340   -0.2930 ca        1 793     -0.130300
      4 C4         -3.9190   -0.5320    0.8800 ca        1 793     -0.116500
      5 C5         -4.6800    0.2410    1.7560 ca        1 793     -0.128500
      6 C6         -4.9270    1.5840    1.4700 ca        1 793     -0.120000
      7 C11         1.1540   -1.6410    0.8540 c         1 793      0.493300
      8 C12        -0.3150   -1.9780    0.5540 c         1 793      0.484300
      9 C13         3.1070    0.7850   -0.1540 ca        1 793      0.192600
     10 C14         4.0480    1.4450   -0.9870 ca        1 793     -0.293300
     11 C15         5.2490    1.8910   -0.4210 ca        1 793      0.422700
     12 C16         4.6840    1.0960    1.6550 ca        1 793      0.422700
     13 C17         3.4480    0.6100    1.2050 ca        1 793     -0.293300
     14 C7         -4.4120    2.1540    0.3050 ca        1 793     -0.128500
     15 C8         -3.6550    1.3820   -0.5740 ca        1 793     -0.116500
     16 N1         -1.2050   -0.3880   -1.3470 nh        1 793     -0.683000
     17 C9         -0.3040   -0.8400   -0.4320 cc        1 793     -0.002200
     18 C10         1.0430   -0.5470   -0.1660 cd        1 793     -0.039200
     19 O2         -1.1340   -2.8000    0.9170 o         1 793     -0.473100
     20 N2          1.8720    0.4060   -0.6890 nh        1 793     -0.594400
     21 N3          5.5800    1.7290    0.8750 nb        1 793     -0.685000
     22 H1         -2.7300   -1.5320   -3.3060 hc        1 793      0.047700
     23 H1A        -4.3190   -1.1990   -2.4910 hc        1 793      0.047700
     24 H1B        -3.2930    0.1780   -3.0740 hc        1 793      0.047700
     25 H2         -2.5850   -1.8830   -0.8460 h1        1 793      0.088700
     26 H4         -3.7130   -1.5890    1.1150 ha        1 793      0.137000
     27 H5         -5.0810   -0.2090    2.6750 ha        1 793      0.135500
     28 H6         -5.5260    2.1930    2.1620 ha        1 793      0.135000
     29 H14         3.8520    1.6130   -2.0540 ha        1 793      0.150500
     30 H15         5.9980    2.4100   -1.0460 h4        1 793      0.024100
     31 H16         4.9760    0.9680    2.7140 h4        1 793      0.024100
     32 H17         2.7750    0.0940    1.9050 ha        1 793      0.150500
     33 H7         -4.6040    3.2130    0.0790 ha        1 793      0.135500
     34 H8         -3.2560    1.8340   -1.4940 ha        1 793      0.137000
     35 HN2         1.7460    0.5930   -1.6620 hn        1 793      0.435800
     36 H151       -1.0960    0.5730   -1.6040 hn        1 793      0.409800
     37 O1          2.0040   -2.0730    1.6070 o         1 793     -0.470100
@<TRIPOS>BOND
     1    1    2 1   
     2    1   22 1   
     3    1   23 1   
     4    1   24 1   
     5    2    3 1   
     6    2   16 1   
     7    2   25 1   
     8    3    4 ar  
     9    3   15 ar  
    10    4    5 ar  
    11    4   26 1   
    12    5    6 ar  
    13    5   27 1   
    14    6   14 ar  
    15    6   28 1   
    16    7    8 1   
    17    7   18 1   
    18    7   37 2   
    19    8   17 1   
    20    8   19 2   
    21    9   10 ar  
    22    9   13 ar  
    23    9   20 1   
    24   10   11 ar  
    25   10   29 1   
    26   11   21 ar  
    27   11   30 1   
    28   12   13 ar  
    29   12   21 ar  
    30   12   31 1   
    31   13   32 1   
    32   14   15 ar  
    33   14   33 1   
    34   15   34 1   
    35   16   17 1   
    36   16   36 1   
    37   17   18 2   
    38   18   20 1   
    39   20   35 1   
@<TRIPOS>SUBSTRUCTURE
     1 793         1 TEMP              0 ****  ****    0 ROOT
