@<TRIPOS>MOLECULE
794
   37    39     1     0     0
SMALL
bcc


@<TRIPOS>ATOM
      1 O35         0.7420    1.6320   -1.5100 o         1 794     -0.726800
      2 C30         0.5500    0.5030   -1.0130 c         1 794      0.910600
      3 O36        -0.4250    0.0070   -0.4330 o         1 794     -0.726800
      4 C19         1.7980   -0.5000   -1.1360 c         1 794      0.399100
      5 O34         1.7810   -1.7100   -1.2180 o         1 794     -0.440100
      6 N18         3.1590    0.2480   -1.1710 n4        1 794     -0.355000
      7 C20         3.7970    0.1170   -2.4910 ca        1 794     -0.007400
      8 C21         3.1550    0.8420   -3.5300 ca        1 794     -0.138000
      9 C22         3.6510    0.7980   -4.8210 ca        1 794     -0.153000
     10 C23         4.7930    0.0410   -5.1070 ca        1 794     -0.126000
     11 C24         5.4170   -0.6660   -4.0930 ca        1 794     -0.113000
     12 C25         4.9340   -0.6500   -2.7700 ca        1 794     -0.060600
     13 C31         5.7420   -1.5020   -1.7890 c         1 794      0.904200
     14 O32         6.8440   -1.0370   -1.3990 o         1 794     -0.804300
     15 O33         5.2820   -2.6380   -1.4900 o         1 794     -0.804300
     16 C11         3.9760    0.0140    0.0180 ca        1 794      0.000600
     17 C12         4.0990   -1.2650    0.5390 ca        1 794     -0.025000
     18 C13         4.7860   -1.4750    1.7580 ca        1 794     -0.109000
     19 C14         5.3420   -0.4230    2.4360 ca        1 794     -0.100000
     20 C2          5.2600    0.8960    1.9130 ca        1 794     -0.035000
     21 C1          4.5960    1.1340    0.6800 ca        1 794      0.002000
     22 C6          4.5910    2.4610    0.1670 ca        1 794     -0.125000
     23 C5          5.1800    3.4910    0.8600 ca        1 794     -0.120000
     24 C4          5.8150    3.2550    2.1000 ca        1 794     -0.142000
     25 C3          5.8570    1.9810    2.6110 ca        1 794     -0.109000
     26 H21         2.2460    1.4350   -3.3140 ha        1 794      0.165000
     27 H22         3.1440    1.3580   -5.6200 ha        1 794      0.123000
     28 H23         5.1870    0.0110   -6.1330 ha        1 794      0.119000
     29 H24         6.3210   -1.2620   -4.2980 ha        1 794      0.149000
     30 H12         3.7040   -2.1490   -0.0040 ha        1 794      0.209000
     31 H13         4.8790   -2.5070    2.1290 ha        1 794      0.144000
     32 H14         5.8770   -0.5800    3.3850 ha        1 794      0.126000
     33 H6          4.1390    2.6860   -0.8110 ha        1 794      0.134000
     34 H5          5.1710    4.5120    0.4500 ha        1 794      0.126000
     35 H4          6.2770    4.0940    2.6380 ha        1 794      0.122000
     36 H3          6.3620    1.7740    3.5660 ha        1 794      0.125000
     37 H181        2.8550    1.2410   -1.1190 hn        1 794      0.459800
@<TRIPOS>BOND
     1    1    2 1   
     2    2    3 1   
     3    2    4 1   
     4    4    5 2   
     5    4    6 1   
     6    6    7 1   
     7    6   16 1   
     8    6   37 1   
     9    7    8 ar  
    10    7   12 ar  
    11    8    9 ar  
    12    8   26 1   
    13    9   10 ar  
    14    9   27 1   
    15   10   11 ar  
    16   10   28 1   
    17   11   12 ar  
    18   11   29 1   
    19   12   13 1   
    20   13   14 1   
    21   13   15 1   
    22   16   17 ar  
    23   16   21 ar  
    24   17   18 ar  
    25   17   30 1   
    26   18   19 ar  
    27   18   31 1   
    28   19   20 ar  
    29   19   32 1   
    30   20   21 ar  
    31   20   25 ar  
    32   21   22 ar  
    33   22   23 ar  
    34   22   33 1   
    35   23   24 ar  
    36   23   34 1   
    37   24   25 ar  
    38   24   35 1   
    39   25   36 1   
@<TRIPOS>SUBSTRUCTURE
     1 794         1 TEMP              0 ****  ****    0 ROOT
