@<TRIPOS>MOLECULE
794
   36    38     1     0     0
SMALL
bcc


@<TRIPOS>ATOM
      1 O35         0.6340    1.2750    0.4720 o         1 794     -0.805300
      2 C30         0.8820    0.1080    0.0750 c         1 794      0.891600
      3 O36         0.5140   -0.9600    0.6200 o         1 794     -0.805300
      4 C19         1.6610    0.0040   -1.2760 c         1 794      0.568100
      5 O34         1.0470    0.0170   -2.3600 o         1 794     -0.647100
      6 N18         3.0710   -0.0270   -1.2730 n         1 794     -0.316200
      7 C20         3.8200    0.0680   -2.4770 ca        1 794      0.096600
      8 C21         3.4730    1.0990   -3.3890 ca        1 794     -0.154000
      9 C22         4.1750    1.2820   -4.5730 ca        1 794     -0.160000
     10 C23         5.2540    0.4560   -4.8800 ca        1 794     -0.186000
     11 C24         5.5980   -0.5650   -4.0010 ca        1 794     -0.113000
     12 C25         4.8920   -0.7930   -2.8130 ca        1 794     -0.117600
     13 C31         5.3620   -2.0000   -2.0100 c         1 794      0.910200
     14 O32         4.5340   -2.9020   -1.7060 o         1 794     -0.835800
     15 O33         6.6010   -2.0790   -1.7540 o         1 794     -0.835800
     16 C11         3.7780   -0.1230   -0.0450 ca        1 794      0.102600
     17 C12         3.8070   -1.3250    0.6560 ca        1 794     -0.068000
     18 C13         4.4750   -1.4230    1.8940 ca        1 794     -0.096000
     19 C14         5.1240   -0.3400    2.4340 ca        1 794     -0.160000
     20 C2          5.1330    0.9000    1.7470 ca        1 794     -0.031000
     21 C1          4.4600    1.0250    0.5020 ca        1 794     -0.017000
     22 C6          4.4850    2.2890   -0.1520 ca        1 794     -0.067000
     23 C5          5.1450    3.3610    0.3970 ca        1 794     -0.172000
     24 C4          5.8180    3.2300    1.6340 ca        1 794     -0.151000
     25 C3          5.8100    2.0270    2.2920 ca        1 794     -0.133000
     26 H21         2.6080    1.7450   -3.1690 ha        1 794      0.135000
     27 H22         3.8750    2.0810   -5.2650 ha        1 794      0.091000
     28 H23         5.8220    0.6070   -5.8070 ha        1 794      0.089000
     29 H24         6.4520   -1.2250   -4.2220 ha        1 794      0.129000
     30 H12         3.3290   -2.2240    0.2230 ha        1 794      0.192000
     31 H13         4.4750   -2.3920    2.4130 ha        1 794      0.114000
     32 H14         5.6490   -0.4160    3.3960 ha        1 794      0.100000
     33 H6          3.9620    2.4010   -1.1170 ha        1 794      0.149000
     34 H5          5.1560    4.3320   -0.1170 ha        1 794      0.105000
     35 H4          6.3410    4.0990    2.0550 ha        1 794      0.095000
     36 H3          6.3290    1.9080    3.2540 ha        1 794      0.102000
@<TRIPOS>BOND
     1    1    2 1   
     2    2    3 1   
     3    2    4 1   
     4    4    5 2   
     5    4    6 1   
     6    6    7 1   
     7    6   16 1   
     8    7    8 ar  
     9    7   12 ar  
    10    8    9 ar  
    11    8   26 1   
    12    9   10 ar  
    13    9   27 1   
    14   10   11 ar  
    15   10   28 1   
    16   11   12 ar  
    17   11   29 1   
    18   12   13 1   
    19   13   14 1   
    20   13   15 1   
    21   16   17 ar  
    22   16   21 ar  
    23   17   18 ar  
    24   17   30 1   
    25   18   19 ar  
    26   18   31 1   
    27   19   20 ar  
    28   19   32 1   
    29   20   21 ar  
    30   20   25 ar  
    31   21   22 ar  
    32   22   23 ar  
    33   22   33 1   
    34   23   24 ar  
    35   23   34 1   
    36   24   25 ar  
    37   24   35 1   
    38   25   36 1   
@<TRIPOS>SUBSTRUCTURE
     1 794         1 TEMP              0 ****  ****    0 ROOT
