@<TRIPOS>MOLECULE
794
   36    32     1     0     0
SMALL
bcc


@<TRIPOS>ATOM
      1 O35        -3.8500   -0.9750    1.5820 o         1 794     -0.540000
      2 C30        -2.7410   -1.5720    1.5970 c2        1 794      0.360000
      3 O36        -2.2700   -1.9970    2.6840 o         1 794     -0.540000
      4 C19        -1.9820   -1.7920    0.3070 c2        1 794      0.246000
      5 O34        -2.2420   -2.7450   -0.3940 o         1 794     -0.353000
      6 N18        -1.0090   -0.8470   -0.1140 n         1 794     -0.243000
      7 C20        -0.3420   -1.0190   -1.3560 c2        1 794      0.078000
      8 C21        -0.5630   -0.1240   -2.3930 c1        1 794     -0.164000
      9 C22         0.1110   -0.2760   -3.5950 c1        1 794     -0.161500
     10 C23         1.0060   -1.3210   -3.7610 c1        1 794     -0.161500
     11 C24         1.2270   -2.2150   -2.7250 c1        1 794     -0.120000
     12 C25         0.5530   -2.0640   -1.5220 c2        1 794     -0.058000
     13 C31         0.7870   -3.0440   -0.3970 c2        1 794      0.376000
     14 O32         1.6580   -2.8000    0.4780 o         1 794     -0.564500
     15 O33         0.1360   -4.1200   -0.3540 o         1 794     -0.564500
     16 C11        -0.7040    0.2680    0.7050 c2        1 794      0.125000
     17 C12        -1.7780    0.9770    0.1810 c2        1 794     -0.180000
     18 C13        -1.7940    2.3670    0.2470 c1        1 794     -0.103000
     19 C14        -0.7350    3.0470    0.8380 c1        1 794     -0.174500
     20 C2          0.3540    2.3300    1.3700 c1        1 794     -0.028000
     21 C1          0.3700    0.9560    1.3040 c1        1 794     -0.038000
     22 C6          1.4490    0.2360    1.8550 c1        1 794     -0.066000
     23 C5          2.5000    0.9160    2.4650 c1        1 794     -0.161500
     24 C4          2.4850    2.3060    2.5320 c1        1 794     -0.161500
     25 C3          1.4190    3.0170    1.9880 c1        1 794     -0.174500
     26 H21        -1.1930    0.6110   -2.2760 ha        1 794      0.119000
     27 H22        -0.0300    0.3670   -4.3190 ha        1 794      0.100500
     28 H23         1.4810   -1.4280   -4.6090 ha        1 794      0.100500
     29 H24         1.8570   -2.9510   -2.8420 ha        1 794      0.130000
     30 H12        -2.5230    0.4990   -0.2350 ha        1 794      0.182000
     31 H13        -2.5500    2.8650   -0.1220 ha        1 794      0.107000
     32 H14        -0.7360    4.0220    0.8630 ha        1 794      0.098500
     33 H6          1.5850   -0.6570    2.2340 ha        1 794      0.236000
     34 H5          3.2140    0.4530    2.9470 ha        1 794      0.100500
     35 H4          3.2660    2.7340    2.9340 ha        1 794      0.100500
     36 H3          1.5850    3.9770    1.9020 ha        1 794      0.098500
@<TRIPOS>BOND
     1    1    2 1   
     2    2    3 1   
     3    2    4 1   
     4    4    5 1   
     5    4    6 1   
     6    6    7 1   
     7    6   16 1   
     8    7    8 1   
     9    7   12 1   
    10    8   26 1   
    11    9   10 1   
    12    9   27 1   
    13   10   28 1   
    14   11   12 1   
    15   11   29 1   
    16   12   13 1   
    17   13   14 1   
    18   13   15 1   
    19   16   17 1   
    20   16   21 1   
    21   17   18 1   
    22   17   30 1   
    23   18   31 1   
    24   19   20 1   
    25   19   32 1   
    26   20   25 1   
    27   21   22 1   
    28   22   33 1   
    29   23   24 1   
    30   23   34 1   
    31   24   35 1   
    32   25   36 1   
@<TRIPOS>SUBSTRUCTURE
     1 794         1 TEMP              0 ****  ****    0 ROOT
