@<TRIPOS>MOLECULE
794
   36    38     1     0     0
SMALL
bcc


@<TRIPOS>ATOM
      1 O35         2.4170   -2.2730    1.5280 o         1 794     -0.805300
      2 C30         2.6500   -1.4610    0.5970 c         1 794      0.891600
      3 O36         3.6680   -0.7380    0.4730 o         1 794     -0.805300
      4 C19         1.5890   -1.4240   -0.5490 c         1 794      0.568100
      5 O34         1.6660   -2.2180   -1.5060 o         1 794     -0.647100
      6 N18         0.4950   -0.5380   -0.4650 n         1 794     -0.316200
      7 C20        -0.5870   -0.6010   -1.3850 ca        1 794      0.096600
      8 C21        -1.1590   -1.8740   -1.6430 ca        1 794     -0.154000
      9 C22        -2.2390   -2.0190   -2.5030 ca        1 794     -0.160000
     10 C23        -2.7950   -0.9010   -3.1210 ca        1 794     -0.186000
     11 C24        -2.2380    0.3510   -2.8850 ca        1 794     -0.113000
     12 C25        -1.1300    0.5260   -2.0460 ca        1 794     -0.117600
     13 C31        -0.6090    1.9560   -1.9640 c         1 794      0.910200
     14 O32        -1.4510    2.8660   -1.7030 o         1 794     -0.835800
     15 O33         0.6010    2.1890   -2.2350 o         1 794     -0.835800
     16 C11         0.4390    0.4270    0.5770 ca        1 794      0.102600
     17 C12         1.2690    1.5430    0.5440 ca        1 794     -0.068000
     18 C13         1.2500    2.4880    1.5910 ca        1 794     -0.095000
     19 C14         0.4030    2.3390    2.6610 ca        1 794     -0.160000
     20 C2         -0.4720    1.2250    2.7280 ca        1 794     -0.031000
     21 C1         -0.4640    0.2550    1.6900 ca        1 794     -0.017000
     22 C6         -1.3510   -0.8530    1.7970 ca        1 794     -0.067000
     23 C5         -2.1970   -0.9840    2.8710 ca        1 794     -0.172000
     24 C4         -2.2060   -0.0130    3.8990 ca        1 794     -0.151000
     25 C3         -1.3610    1.0650    3.8270 ca        1 794     -0.133000
     26 H21        -0.7150   -2.7690   -1.1780 ha        1 794      0.135000
     27 H22        -2.6530   -3.0190   -2.6920 ha        1 794      0.091000
     28 H23        -3.6590   -1.0090   -3.7890 ha        1 794      0.089000
     29 H24        -2.6660    1.2480   -3.3590 ha        1 794      0.129000
     30 H12         1.9310    1.7090   -0.3270 ha        1 794      0.192000
     31 H13         1.9210    3.3560    1.5240 ha        1 794      0.114000
     32 H14         0.3820    3.0770    3.4740 ha        1 794      0.100000
     33 H6         -1.3510   -1.6160    1.0010 ha        1 794      0.149000
     34 H5         -2.8760   -1.8450    2.9440 ha        1 794      0.105000
     35 H4         -2.8920   -0.1360    4.7480 ha        1 794      0.095000
     36 H3         -1.3550    1.8290    4.6180 ha        1 794      0.102000
@<TRIPOS>BOND
     1    1    2 1   
     2    2    3 1   
     3    2    4 1   
     4    4    5 2   
     5    4    6 1   
     6    6    7 1   
     7    6   16 1   
     8    7    8 ar  
     9    7   12 ar  
    10    8    9 ar  
    11    8   26 1   
    12    9   10 ar  
    13    9   27 1   
    14   10   11 ar  
    15   10   28 1   
    16   11   12 ar  
    17   11   29 1   
    18   12   13 1   
    19   13   14 1   
    20   13   15 1   
    21   16   17 ar  
    22   16   21 ar  
    23   17   18 ar  
    24   17   30 1   
    25   18   19 ar  
    26   18   31 1   
    27   19   20 ar  
    28   19   32 1   
    29   20   21 ar  
    30   20   25 ar  
    31   21   22 ar  
    32   22   23 ar  
    33   22   33 1   
    34   23   24 ar  
    35   23   34 1   
    36   24   25 ar  
    37   24   35 1   
    38   25   36 1   
@<TRIPOS>SUBSTRUCTURE
     1 794         1 TEMP              0 ****  ****    0 ROOT
