@<TRIPOS>MOLECULE
794
   36    38     1     0     0
SMALL
bcc


@<TRIPOS>ATOM
      1 O35         0.6400    1.2460    0.5050 o         1 794     -0.805300
      2 C30         0.8890    0.0850    0.0910 c         1 794      0.891600
      3 O36         0.5270   -0.9920    0.6240 o         1 794     -0.805300
      4 C19         1.6580    0.0010   -1.2660 c         1 794      0.568100
      5 O34         1.0380    0.0260   -2.3450 o         1 794     -0.647100
      6 N18         3.0680   -0.0260   -1.2730 n         1 794     -0.316200
      7 C20         3.8100    0.0870   -2.4800 ca        1 794      0.096600
      8 C21         3.4540    1.1290   -3.3760 ca        1 794     -0.154000
      9 C22         4.1470    1.3290   -4.5620 ca        1 794     -0.160000
     10 C23         5.2270    0.5100   -4.8870 ca        1 794     -0.186000
     11 C24         5.5800   -0.5210   -4.0230 ca        1 794     -0.113000
     12 C25         4.8820   -0.7670   -2.8340 ca        1 794     -0.117600
     13 C31         5.3610   -1.9830   -2.0500 c         1 794      0.910200
     14 O32         4.5360   -2.8910   -1.7520 o         1 794     -0.835800
     15 O33         6.6010   -2.0620   -1.8030 o         1 794     -0.835800
     16 C11         3.7840   -0.1370   -0.0500 ca        1 794      0.102600
     17 C12         3.8210   -1.3480    0.6350 ca        1 794     -0.068000
     18 C13         4.4960   -1.4600    1.8670 ca        1 794     -0.096000
     19 C14         5.1460   -0.3830    2.4170 ca        1 794     -0.160000
     20 C2          5.1480    0.8670    1.7460 ca        1 794     -0.031000
     21 C1          4.4660    1.0060    0.5070 ca        1 794     -0.017000
     22 C6          4.4850    2.2790   -0.1310 ca        1 794     -0.067000
     23 C5          5.1460    3.3450    0.4280 ca        1 794     -0.172000
     24 C4          5.8270    3.2000    1.6590 ca        1 794     -0.151000
     25 C3          5.8260    1.9880    2.3010 ca        1 794     -0.133000
     26 H21         2.5880    1.7690   -3.1420 ha        1 794      0.135000
     27 H22         3.8420    2.1360   -5.2410 ha        1 794      0.091000
     28 H23         5.7890    0.6750   -5.8160 ha        1 794      0.089000
     29 H24         6.4340   -1.1760   -4.2580 ha        1 794      0.129000
     30 H12         3.3410   -2.2420    0.1930 ha        1 794      0.192000
     31 H13         4.5020   -2.4360    2.3730 ha        1 794      0.114000
     32 H14         5.6770   -0.4700    3.3750 ha        1 794      0.100000
     33 H6          3.9550    2.4020   -1.0900 ha        1 794      0.149000
     34 H5          5.1510    4.3220   -0.0730 ha        1 794      0.105000
     35 H4          6.3510    4.0640    2.0880 ha        1 794      0.095000
     36 H3          6.3510    1.8580    3.2590 ha        1 794      0.102000
@<TRIPOS>BOND
     1    1    2 1   
     2    2    3 1   
     3    2    4 1   
     4    4    5 2   
     5    4    6 1   
     6    6    7 1   
     7    6   16 1   
     8    7    8 ar  
     9    7   12 ar  
    10    8    9 ar  
    11    8   26 1   
    12    9   10 ar  
    13    9   27 1   
    14   10   11 ar  
    15   10   28 1   
    16   11   12 ar  
    17   11   29 1   
    18   12   13 1   
    19   13   14 1   
    20   13   15 1   
    21   16   17 ar  
    22   16   21 ar  
    23   17   18 ar  
    24   17   30 1   
    25   18   19 ar  
    26   18   31 1   
    27   19   20 ar  
    28   19   32 1   
    29   20   21 ar  
    30   20   25 ar  
    31   21   22 ar  
    32   22   23 ar  
    33   22   33 1   
    34   23   24 ar  
    35   23   34 1   
    36   24   25 ar  
    37   24   35 1   
    38   25   36 1   
@<TRIPOS>SUBSTRUCTURE
     1 794         1 TEMP              0 ****  ****    0 ROOT
