@<TRIPOS>MOLECULE
795
   19    14     1     0     0
SMALL
bcc


@<TRIPOS>ATOM
      1 C1          0.4520   -0.1720    0.8720 c1        1 795     -0.081000
      2 C2          1.8160   -0.2070    0.8690 c1        1 795     -0.134500
      3 C3          2.4990   -0.2440    2.0500 c1        1 795     -0.134500
      4 C4          1.8060   -0.2460    3.2510 c1        1 795     -0.057000
      5 N5          0.4440   -0.2120    3.2520 n1        1 795     -0.138000
      6 C6         -0.2380   -0.1750    2.0740 c1        1 795     -0.022000
      7 C7         -0.2430   -0.1850   -0.3270 c1        1 795     -0.232000
      8 S8         -0.6750   -1.4420   -1.1130 ss        1 795      0.527000
      9 C9         -1.4720   -0.9730   -2.3260 c1        1 795     -0.430000
     10 C10        -1.5270    0.4680   -2.2890 c1        1 795     -0.166000
     11 N11        -0.7460    0.9590   -1.0190 n2        1 795     -0.051000
     12 C12        -2.2190    1.3550   -3.3020 c1        1 795      0.249000
     13 O13        -2.1990    2.5640   -3.1670 o         1 795     -0.249000
     14 H2          2.3030   -0.2060    0.0230 ha        1 795      0.142500
     15 H3          3.4750   -0.2690    2.0490 ha        1 795      0.142500
     16 H4          2.2950   -0.2730    4.0960 ha        1 795      0.164000
     17 H6         -1.2140   -0.1500    2.0760 ha        1 795      0.189000
     18 H9         -1.8730   -1.5470   -3.0060 DU        1 795      0.186000
     19 H12        -2.6860    0.9550   -4.0630 ha        1 795      0.094000
@<TRIPOS>BOND
     1    1    6 1   
     2    2    3 1   
     3    2   14 1   
     4    3   15 1   
     5    4    5 1   
     6    4   16 1   
     7    6   17 1   
     8    7    8 1   
     9    7   11 1   
    10    8    9 1   
    11    9   10 1   
    12   10   11 1   
    13   12   13 1   
    14   12   19 1   
@<TRIPOS>SUBSTRUCTURE
     1 795         1 TEMP              0 ****  ****    0 ROOT
