@<TRIPOS>MOLECULE
795
   19    20     1     0     0
SMALL
bcc


@<TRIPOS>ATOM
      1 C1         -0.0420   -0.0200    0.0030 ca        1 795     -0.252800
      2 C2          1.3540    0.1250   -0.0360 ca        1 795     -0.086000
      3 C3          2.0690    0.1220    1.1590 ca        1 795     -0.245300
      4 C4          1.3610   -0.0250    2.3660 ca        1 795      0.408200
      5 N5          0.0220   -0.1640    2.4270 nb        1 795     -0.664000
      6 C6         -0.6610   -0.1600    1.2680 ca        1 795      0.440200
      7 C7         -0.8200   -0.0280   -1.2200 cc        1 795      0.452900
      8 S8         -0.0490   -0.2240   -2.7640 ss        1 795     -0.056300
      9 C9         -1.5100   -0.1300   -3.5390 cc        1 795     -0.194400
     10 C10        -2.5490    0.0450   -2.6230 cd        1 795      0.236800
     11 N11        -2.1480    0.1030   -1.2920 nd        1 795     -0.603000
     12 C12        -3.9700    0.1640   -3.0030 c         1 795      0.498400
     13 O13        -4.3360    0.1150   -4.1790 o         1 795     -0.526100
     14 H2          1.8770    0.2430   -0.9980 ha        1 795      0.140000
     15 H3          3.1620    0.2340    1.1650 ha        1 795      0.149000
     16 H4          1.8890   -0.0320    3.3370 h4        1 795      0.027100
     17 H6         -1.7580   -0.2740    1.3550 h4        1 795      0.046100
     18 H9         -1.6610   -0.1940   -4.6190 h4        1 795      0.202000
     19 H12        -4.6880    0.3010   -2.1650 h4        1 795      0.028200
@<TRIPOS>BOND
     1    1    2 ar  
     2    1    6 ar  
     3    1    7 1   
     4    2    3 ar  
     5    2   14 1   
     6    3    4 ar  
     7    3   15 1   
     8    4    5 ar  
     9    4   16 1   
    10    5    6 ar  
    11    6   17 1   
    12    7    8 1   
    13    7   11 2   
    14    8    9 1   
    15    9   10 2   
    16    9   18 1   
    17   10   11 1   
    18   10   12 1   
    19   12   13 2   
    20   12   19 1   
@<TRIPOS>SUBSTRUCTURE
     1 795         1 TEMP              0 ****  ****    0 ROOT
