@<TRIPOS>MOLECULE
795
   19    20     1     0     0
SMALL
bcc


@<TRIPOS>ATOM
      1 C1          1.3630   -0.0950   -0.0260 ca        1 795     -0.252800
      2 C2          2.2130    1.0130    0.1200 ca        1 795     -0.086000
      3 C3          3.5910    0.8140    0.1230 ca        1 795     -0.245300
      4 C4          4.0820   -0.4980   -0.0180 ca        1 795      0.408200
      5 N5          3.2850   -1.5750   -0.1570 nb        1 795     -0.664000
      6 C6          1.9550   -1.3740   -0.1600 ca        1 795      0.440200
      7 C7         -0.0770    0.0720   -0.0400 cc        1 795      0.452900
      8 S8         -0.7870    1.6430   -0.2440 ss        1 795     -0.056300
      9 C9         -2.3120    0.9990   -0.1550 cc        1 795     -0.194400
     10 C10        -2.2570   -0.3840    0.0240 cd        1 795      0.236800
     11 N11        -0.9720   -0.9130    0.0890 nd        1 795     -0.603000
     12 C12        -3.4480   -1.2470    0.1400 c         1 795      0.498400
     13 O13        -4.5910   -0.7890    0.0850 o         1 795     -0.526100
     14 H2          1.7950    2.0260    0.2340 ha        1 795      0.140000
     15 H3          4.2840    1.6580    0.2360 ha        1 795      0.149000
     16 H4          5.1680   -0.7000   -0.0200 h4        1 795      0.027100
     17 H6          1.3310   -2.2800   -0.2740 h4        1 795      0.046100
     18 H9         -3.2440    1.5620   -0.2240 h4        1 795      0.202000
     19 H12        -3.2510   -2.3320    0.2810 h4        1 795      0.028200
@<TRIPOS>BOND
     1    1    2 ar  
     2    1    6 ar  
     3    1    7 1   
     4    2    3 ar  
     5    2   14 1   
     6    3    4 ar  
     7    3   15 1   
     8    4    5 ar  
     9    4   16 1   
    10    5    6 ar  
    11    6   17 1   
    12    7    8 1   
    13    7   11 2   
    14    8    9 1   
    15    9   10 2   
    16    9   18 1   
    17   10   11 1   
    18   10   12 1   
    19   12   13 2   
    20   12   19 1   
@<TRIPOS>SUBSTRUCTURE
     1 795         1 TEMP              0 ****  ****    0 ROOT
