@<TRIPOS>MOLECULE
796
   49    51     1     0     0
SMALL
bcc


@<TRIPOS>ATOM
      1 O23         0.2440   -1.3620   -0.0730 o         1 796     -0.569100
      2 C22         1.3630   -0.8800    0.1240 c         1 796      0.651700
      3 C18         2.0910   -0.7200    1.3200 cc        1 796     -0.340700
      4 S1          3.6260   -0.0570    1.5670 ss        1 796      0.107200
      5 C17         1.5320   -1.1400    2.5590 cd        1 796      0.015000
      6 C16         2.3940   -0.8920    3.6340 cd        1 796     -0.147000
      7 C15         3.5940   -0.2960    3.2160 cc        1 796     -0.001600
      8 C3          4.7050    0.0850    4.0820 ca        1 796      0.501800
      9 C2          5.9570    0.3580    3.5010 ca        1 796     -0.434600
     10 N4          4.4720    0.1550    5.4140 nb        1 796     -0.754000
     11 C5          5.5590    0.5230    6.2120 ca        1 796      0.910900
     12 N9          5.3470    0.6090    7.5690 nu        1 796     -0.830900
     13 C10         6.3830    0.9600    8.4960 c3        1 796      0.201100
     14 N6          6.8410    0.8130    5.7080 nb        1 796     -0.701000
     15 C1          6.9960    0.7220    4.3920 ca        1 796      0.495200
     16 N24         2.0540   -0.3910   -1.1590 ny        1 796     -0.689800
     17 C25         1.1130   -0.0940   -2.2890 c3        1 796      0.106500
     18 C27         0.5540   -1.3600   -2.9830 c3        1 796      0.094800
     19 N43        -0.8720   -1.6460   -2.6670 nz        1 796     -0.842600
     20 C28         1.8090    0.7830   -3.3550 c3        1 796     -0.045100
     21 C30         2.4060    2.0090   -2.7670 ca        1 796     -0.195300
     22 C37         3.8020    2.1230   -2.6900 ca        1 796     -0.115000
     23 C36         4.4030    3.2900   -2.2310 ca        1 796     -0.115000
     24 C35         3.6060    4.3770   -1.8410 ca        1 796      0.056400
     25 Cl4         4.3250    5.7970   -1.2940 cl        1 796      0.007600
     26 C34         2.2100    4.2850   -1.9150 ca        1 796     -0.106000
     27 C33         1.6200    3.1070   -2.3780 ca        1 796      0.037400
     28 Cl2        -0.0780    3.0400   -2.4720 cl        1 796     -0.076400
     29 H17         0.5400   -1.6010    2.6510 ha        1 796      0.194000
     30 H16         2.1650   -1.1310    4.6820 ha        1 796      0.224000
     31 H2          6.1390    0.2840    2.4250 ha        1 796      0.143000
     32 HN9         4.4420    0.3920    7.9230 hn        1 796      0.463800
     33 H101        5.9470    0.9560    9.5300 h1        1 796      0.064700
     34 H102        7.2280    0.2210    8.4480 h1        1 796      0.064700
     35 H103        6.7880    1.9830    8.2690 h1        1 796      0.064700
     36 H1          8.0120    0.9490    4.0110 h4        1 796      0.050100
     37 HN24        2.5670    0.4850   -0.9520 hn        1 796      0.470800
     38 H25         0.2720    0.5210   -1.8330 hx        1 796      0.134700
     39 H271        1.1500   -2.2830   -2.7170 hx        1 796      0.132700
     40 H272        0.6250   -1.2170   -4.1060 hx        1 796      0.132700
     41 H431       -0.9960   -1.8330   -1.6570 hn        1 796      0.482800
     42 H432       -1.1800   -2.4740   -3.1960 hn        1 796      0.482800
     43 H281        2.5940    0.1820   -3.8900 hc        1 796      0.098700
     44 H282        1.0280    1.0720   -4.1140 hc        1 796      0.098700
     45 H37         4.4410    1.2950   -3.0380 ha        1 796      0.145000
     46 H36         5.5030    3.3690   -2.1960 ha        1 796      0.182000
     47 H34         1.5810    5.1470   -1.6270 ha        1 796      0.195000
     48 H242        2.7400   -1.0950   -1.4500 hn        1 796      0.470800
     49 H433       -1.4680   -0.8500   -2.9250 hn        1 796      0.482800
@<TRIPOS>BOND
     1    1    2 2   
     2    2    3 1   
     3    2   16 1   
     4    3    4 1   
     5    3    5 2   
     6    4    7 1   
     7    5    6 1   
     8    5   29 1   
     9    6    7 2   
    10    6   30 1   
    11    7    8 1   
    12    8    9 ar  
    13    8   10 ar  
    14    9   15 ar  
    15    9   31 1   
    16   10   11 ar  
    17   11   12 1   
    18   11   14 ar  
    19   12   13 1   
    20   12   32 1   
    21   13   33 1   
    22   13   34 1   
    23   13   35 1   
    24   14   15 ar  
    25   15   36 1   
    26   16   17 1   
    27   16   37 1   
    28   16   48 1   
    29   17   18 1   
    30   17   20 1   
    31   17   38 1   
    32   18   19 1   
    33   18   39 1   
    34   18   40 1   
    35   19   41 1   
    36   19   42 1   
    37   19   49 1   
    38   20   21 1   
    39   20   43 1   
    40   20   44 1   
    41   21   22 ar  
    42   21   27 ar  
    43   22   23 ar  
    44   22   45 1   
    45   23   24 ar  
    46   23   46 1   
    47   24   25 1   
    48   24   26 ar  
    49   26   27 ar  
    50   26   47 1   
    51   27   28 1   
@<TRIPOS>SUBSTRUCTURE
     1 796         1 TEMP              0 ****  ****    0 ROOT
