@<TRIPOS>MOLECULE
796
   47    41     1     0     0
SMALL
bcc


@<TRIPOS>ATOM
      1 O23        -1.2650    0.5310   -0.6770 o         1 796     -0.372000
      2 C22        -0.0890    0.2360   -0.7110 c1        1 796      0.378000
      3 C18         0.6320   -0.1810    0.5720 c1        1 796     -0.443000
      4 S1          0.0210   -0.1890    2.0040 ss        1 796      0.713000
      5 C17         1.9940   -0.6700    0.6660 c1        1 796     -0.144000
      6 C16         2.3000   -1.0120    2.1940 c1        1 796     -0.109000
      7 C15         1.1100   -0.7180    2.9750 c2        1 796     -0.375000
      8 C3          0.9310   -0.9920    4.3570 c1        1 796      0.135000
      9 C2          0.6450    0.0240    5.2220 c1        1 796     -0.147000
     10 N4          0.9720   -2.2590    4.8010 n1        1 796     -0.224000
     11 C5          0.7260   -2.5320    6.1200 c1        1 796      0.154000
     12 N9          0.7500   -3.8850    6.5870 n3        1 796     -0.276000
     13 C10         0.0350   -4.2480    7.7880 c3        1 796     -0.082000
     14 N6          0.4390   -1.5170    6.9860 n1        1 796     -0.218000
     15 C1          0.3980   -0.2510    6.5450 c1        1 796     -0.147000
     16 N24         0.6010    0.1930   -1.9640 n3        1 796     -0.372000
     17 C25        -0.1310    0.2290   -3.1780 c3        1 796      0.037000
     18 C27        -0.0700   -1.1250   -3.8430 c3        1 796     -0.096000
     19 N43        -1.3350   -1.4320   -4.4100 n3        1 796     -0.350000
     20 C28         0.4740    1.2750   -4.1060 c3        1 796     -0.137000
     21 C30        -0.5340    2.4270   -4.3140 c2        1 796     -0.064000
     22 C37        -0.2490    3.6920   -3.8190 c2        1 796     -0.124000
     23 C36        -1.0820    4.7670   -4.1310 c1        1 796     -0.120000
     24 C35        -2.1960    4.5710   -4.9390 c1        1 796     -0.057000
     25 CL4        -3.1890    5.9290   -5.3970 cl        1 796     -0.004000
     26 C34        -2.4810    3.3050   -5.4340 c1        1 796     -0.117000
     27 C33        -1.6510    2.2310   -5.1230 c1        1 796     -0.049000
     28 CL2        -1.8880    0.6970   -5.9130 cl        1 796     -0.002000
     29 H17         2.6210   -0.7730   -0.0830 DU        1 796      0.164500
     30 H16         3.1430   -1.3590    2.5440 DU        1 796      0.164500
     31 H2          0.6150    0.9440    4.9010 ha        1 796      0.159000
     32 HN9         1.2610   -4.5090    6.1530 hn        1 796      0.226000
     33 H101        0.2150   -5.1900    8.0040 h1        1 796      0.085333
     34 H102        0.3350   -3.6770    8.5330 h1        1 796      0.085333
     35 H103       -0.9290   -4.1220    7.6470 h1        1 796      0.085333
     36 H1          0.1930    0.4730    7.1640 ha        1 796      0.159000
     37 HN24        1.5190    0.1960   -1.9820 hn        1 796      0.230000
     38 H25        -1.0580    0.4580   -2.9910 h1        1 796      0.116000
     39 H271        0.6080   -1.1110   -4.5480 h1        1 796      0.079000
     40 H272        0.1650   -1.8070   -3.1760 h1        1 796      0.079000
     41 H431       -1.2370   -1.5880   -5.3030 hn        1 796      0.148500
     42 H432       -1.6780   -2.1780   -4.0050 hn        1 796      0.148500
     43 H281        0.6810    0.8640   -4.9700 hc        1 796      0.115500
     44 H282        1.2930    1.6280   -3.7080 hc        1 796      0.115500
     45 H37         0.5310    3.8290   -3.2540 ha        1 796      0.138000
     46 H36        -0.8820    5.6560   -3.7830 ha        1 796      0.152000
     47 H34        -3.2650    3.1680   -6.0020 ha        1 796      0.163000
@<TRIPOS>BOND
     1    1    2 1   
     2    2   16 1   
     3    3    4 1   
     4    3    5 1   
     5    4    7 1   
     6    5    6 1   
     7    6    7 1   
     8    7    8 1   
     9    8   10 1   
    10    9   15 1   
    11    9   31 1   
    12   11   12 1   
    13   11   14 1   
    14   12   13 1   
    15   12   32 1   
    16   13   33 1   
    17   13   34 1   
    18   13   35 1   
    19   15   36 1   
    20   16   17 1   
    21   16   37 1   
    22   17   18 1   
    23   17   20 1   
    24   17   38 1   
    25   18   19 1   
    26   18   39 1   
    27   18   40 1   
    28   19   41 1   
    29   19   42 1   
    30   20   21 1   
    31   20   43 1   
    32   20   44 1   
    33   21   22 1   
    34   21   27 1   
    35   22   23 1   
    36   22   45 1   
    37   23   46 1   
    38   24   25 1   
    39   24   26 1   
    40   26   47 1   
    41   27   28 1   
@<TRIPOS>SUBSTRUCTURE
     1 796         1 TEMP              0 ****  ****    0 ROOT
