@<TRIPOS>MOLECULE
796
   49    51     1     0     0
SMALL
bcc


@<TRIPOS>ATOM
      1 O23         0.2690   -1.3950   -0.0750 o         1 796     -0.569100
      2 C22         1.3820   -0.8980    0.1230 c         1 796      0.651700
      3 C18         2.1090   -0.7320    1.3190 cc        1 796     -0.340700
      4 S1          3.6360   -0.0510    1.5660 ss        1 796      0.107200
      5 C17         1.5550   -1.1600    2.5580 cd        1 796      0.015000
      6 C16         2.4150   -0.9040    3.6320 cd        1 796     -0.147000
      7 C15         3.6080   -0.2930    3.2140 cc        1 796     -0.001600
      8 C3          4.7140    0.1000    4.0800 ca        1 796      0.501800
      9 C2          5.9630    0.3890    3.4980 ca        1 796     -0.434600
     10 N4          4.4820    0.1660    5.4130 nb        1 796     -0.754000
     11 C5          5.5650    0.5450    6.2110 ca        1 796      0.910900
     12 N9          5.3530    0.6260    7.5670 nh        1 796     -0.830900
     13 C10         6.3850    0.9870    8.4950 c3        1 796      0.201100
     14 N6          6.8430    0.8500    5.7060 nb        1 796     -0.701000
     15 C1          6.9990    0.7630    4.3900 ca        1 796      0.495200
     16 N24         2.0660   -0.3990   -1.1590 n4        1 796     -0.689800
     17 C25         1.1200   -0.1130   -2.2890 c3        1 796      0.106500
     18 C27         0.5780   -1.3850   -2.9850 c3        1 796      0.094800
     19 N43        -0.8440   -1.6920   -2.6680 n4        1 796     -0.842600
     20 C28         1.8040    0.7750   -3.3540 c3        1 796     -0.045100
     21 C30         2.3840    2.0090   -2.7640 ca        1 796     -0.195300
     22 C37         3.7780    2.1420   -2.6860 ca        1 796     -0.115000
     23 C36         4.3620    3.3160   -2.2260 ca        1 796     -0.115000
     24 C35         3.5500    4.3910   -1.8350 ca        1 796      0.056400
     25 CL4         4.2490    5.8210   -1.2860 cl        1 796      0.007600
     26 C34         2.1560    4.2810   -1.9090 ca        1 796     -0.106000
     27 C33         1.5820    3.0950   -2.3740 ca        1 796      0.037400
     28 CL2        -0.1150    3.0050   -2.4690 cl        1 796     -0.076400
     29 H17         0.5690   -1.6330    2.6480 ha        1 796      0.194000
     30 H16         2.1900   -1.1470    4.6800 ha        1 796      0.224000
     31 H2          6.1450    0.3170    2.4220 ha        1 796      0.143000
     32 HN9         4.4500    0.3980    7.9210 hn        1 796      0.463800
     33 H101        7.2390    0.2580    8.4450 h1        1 796      0.064700
     34 H102        5.9490    0.9770    9.5290 h1        1 796      0.064700
     35 H103        6.7780    2.0150    8.2680 h1        1 796      0.064700
     36 H1          8.0120    1.0020    4.0080 h4        1 796      0.050100
     37 HN24        2.7610   -1.0930   -1.4520 hn        1 796      0.470800
     38 H25         0.2710    0.4900   -1.8320 hx        1 796      0.134700
     39 H271        0.6460   -1.2390   -4.1080 hx        1 796      0.132700
     40 H272        1.1870   -2.3000   -2.7210 hx        1 796      0.132700
     41 H431       -0.9640   -1.8820   -1.6590 hn        1 796      0.482800
     42 H432       -1.4500   -0.9030   -2.9250 hn        1 796      0.482800
     43 H281        1.0190    1.0550   -4.1130 hc        1 796      0.098700
     44 H282        2.5970    0.1860   -3.8900 hc        1 796      0.098700
     45 H37         4.4280    1.3230   -3.0360 ha        1 796      0.145000
     46 H36         5.4620    3.4110   -2.1910 ha        1 796      0.182000
     47 H34         1.5140    5.1340   -1.6200 ha        1 796      0.195000
     48 H242        2.5660    0.4840   -0.9520 hn        1 796      0.470800
     49 H433       -1.1400   -2.5230   -3.1980 hn        1 796      0.482800
@<TRIPOS>BOND
     1    1    2 2   
     2    2    3 1   
     3    2   16 1   
     4    3    4 1   
     5    3    5 2   
     6    4    7 1   
     7    5    6 1   
     8    5   29 1   
     9    6    7 2   
    10    6   30 1   
    11    7    8 1   
    12    8    9 ar  
    13    8   10 ar  
    14    9   15 ar  
    15    9   31 1   
    16   10   11 ar  
    17   11   12 1   
    18   11   14 ar  
    19   12   13 1   
    20   12   32 1   
    21   13   33 1   
    22   13   34 1   
    23   13   35 1   
    24   14   15 ar  
    25   15   36 1   
    26   16   17 1   
    27   16   37 1   
    28   16   48 1   
    29   17   18 1   
    30   17   20 1   
    31   17   38 1   
    32   18   19 1   
    33   18   39 1   
    34   18   40 1   
    35   19   41 1   
    36   19   42 1   
    37   19   49 1   
    38   20   21 1   
    39   20   43 1   
    40   20   44 1   
    41   21   22 ar  
    42   21   27 ar  
    43   22   23 ar  
    44   22   45 1   
    45   23   24 ar  
    46   23   46 1   
    47   24   25 1   
    48   24   26 ar  
    49   26   27 ar  
    50   26   47 1   
    51   27   28 1   
@<TRIPOS>SUBSTRUCTURE
     1 796         1 TEMP              0 ****  ****    0 ROOT
