@<TRIPOS>MOLECULE
796
   50    52     1     0     0
SMALL
bcc


@<TRIPOS>ATOM
      1 O23         0.4860   -1.3770    0.0360 o         1 796     -0.514100
      2 C22         1.5700   -0.8110    0.1680 c         1 796      0.646700
      3 C18         2.3280   -0.6220    1.3670 cc        1 796     -0.302700
      4 S1          3.8180    0.1200    1.6170 ss        1 796      0.159200
      5 C17         1.8050   -1.1060    2.5870 cd        1 796      0.007000
      6 C16         2.6710   -0.8420    3.6700 cd        1 796     -0.116000
      7 C15         3.8250   -0.1730    3.2610 cc        1 796     -0.107600
      8 C3          4.9140    0.2200    4.1540 ca        1 796      0.516800
      9 C2          6.2350    0.3180    3.6690 ca        1 796     -0.302600
     10 N4          4.6140    0.4710    5.4640 nb        1 796     -0.654000
     11 C5          5.6700    0.8230    6.2570 ca        1 796      0.724900
     12 N9          5.3730    1.1050    7.6970 n4        1 796     -0.736700
     13 C10         5.8700    0.0140    8.5780 c3        1 796      0.083100
     14 N6          6.9890    0.9470    5.8780 nb        1 796     -0.630000
     15 C1          7.2460    0.6900    4.5860 ca        1 796      0.489200
     16 N24         2.1480   -0.2690   -1.1330 n4        1 796     -0.686800
     17 C25         1.1360   -0.1260   -2.2410 c3        1 796      0.103500
     18 C27         0.6790   -1.4760   -2.8460 c3        1 796      0.091800
     19 N43        -0.7380   -1.8230   -2.5510 n4        1 796     -0.841600
     20 C28         1.7080    0.7560   -3.3730 c3        1 796     -0.045100
     21 C30         2.2330    2.0530   -2.8770 ca        1 796     -0.210300
     22 C37         3.6090    2.3130   -2.9720 ca        1 796     -0.110000
     23 C36         4.1280    3.5610   -2.6460 ca        1 796     -0.117000
     24 C35         3.2690    4.5850   -2.2180 ca        1 796      0.058400
     25 CL4         3.8860    6.1030   -1.8420 cl        1 796      0.017600
     26 C34         1.8910    4.3460   -2.1190 ca        1 796     -0.107000
     27 C33         1.3830    3.0880   -2.4490 ca        1 796      0.033400
     28 CL2        -0.2980    2.8480   -2.3420 cl        1 796     -0.073400
     29 H17         0.8420   -1.6270    2.6820 ha        1 796      0.209000
     30 H16         2.4480   -1.1370    4.7050 ha        1 796      0.215000
     31 H2          6.4900    0.1020    2.6210 ha        1 796      0.187000
     32 HN9         4.3540    1.2160    7.8200 hn        1 796      0.485800
     33 H101        6.9890   -0.0680    8.4920 hx        1 796      0.125033
     34 H102        5.5930    0.2680    9.6400 hx        1 796      0.125033
     35 H103        5.3930   -0.9580    8.2820 hx        1 796      0.125033
     36 H1          8.3120    0.7850    4.2780 h4        1 796      0.098100
     37 HN24        2.5430    0.6760   -0.9720 hn        1 796      0.477800
     38 H25         0.2580    0.4320   -1.7790 hx        1 796      0.136700
     39 H271        0.7830   -1.4230   -3.9750 hx        1 796      0.137700
     40 H272        1.3170   -2.3370   -2.4870 hx        1 796      0.137700
     41 H431       -0.9710   -2.7210   -3.0030 hn        1 796      0.485467
     42 H432       -0.8930   -1.9150   -1.5360 hn        1 796      0.485467
     43 H281        0.8660    0.9490   -4.0990 hc        1 796      0.105700
     44 H282        2.5090    0.1950   -3.9280 hc        1 796      0.105700
     45 H37         4.2890    1.5380   -3.3610 ha        1 796      0.148000
     46 H36         5.2100    3.7560   -2.7560 ha        1 796      0.185000
     47 H34         1.2080    5.1590   -1.8070 ha        1 796      0.198000
     48 H92         5.8350    1.9930    7.9530 hn        1 796      0.485800
     49 H242        2.9120   -0.8830   -1.4400 hn        1 796      0.477800
     50 H433       -1.3730   -1.1010   -2.9170 hn        1 796      0.485467
@<TRIPOS>BOND
     1    1    2 2   
     2    2    3 1   
     3    2   16 1   
     4    3    4 1   
     5    3    5 2   
     6    4    7 1   
     7    5    6 1   
     8    5   29 1   
     9    6    7 2   
    10    6   30 1   
    11    7    8 1   
    12    8    9 ar  
    13    8   10 ar  
    14    9   15 ar  
    15    9   31 1   
    16   10   11 ar  
    17   11   12 1   
    18   11   14 ar  
    19   12   13 1   
    20   12   32 1   
    21   12   48 1   
    22   13   33 1   
    23   13   34 1   
    24   13   35 1   
    25   14   15 ar  
    26   15   36 1   
    27   16   17 1   
    28   16   37 1   
    29   16   49 1   
    30   17   18 1   
    31   17   20 1   
    32   17   38 1   
    33   18   19 1   
    34   18   39 1   
    35   18   40 1   
    36   19   41 1   
    37   19   42 1   
    38   19   50 1   
    39   20   21 1   
    40   20   43 1   
    41   20   44 1   
    42   21   22 ar  
    43   21   27 ar  
    44   22   23 ar  
    45   22   45 1   
    46   23   24 ar  
    47   23   46 1   
    48   24   25 1   
    49   24   26 ar  
    50   26   27 ar  
    51   26   47 1   
    52   27   28 1   
@<TRIPOS>SUBSTRUCTURE
     1 796         1 TEMP              0 ****  ****    0 ROOT
