@<TRIPOS>MOLECULE
796
   47    49     1     0     0
SMALL
bcc


@<TRIPOS>ATOM
      1 O23        -1.2360   -2.2710    1.8030 o         1 796     -0.596100
      2 C22        -0.6630   -1.8100    0.7950 c         1 796      0.706700
      3 C18         0.7710   -1.4730    0.8090 cc        1 796     -0.179700
      4 S1          1.5600   -0.4910   -0.2940 ss        1 796      0.063200
      5 C17         1.6380   -1.9430    1.7850 cd        1 796     -0.097000
      6 C16         2.9660   -1.4740    1.5800 cd        1 796     -0.112000
      7 C15         3.0550   -0.6610    0.4590 cc        1 796     -0.178600
      8 C3          4.2550   -0.0090   -0.0430 ca        1 796      0.568800
      9 C2          4.1590    0.8070   -1.1960 ca        1 796     -0.432600
     10 N4          5.4270   -0.1950    0.6090 nb        1 796     -0.748000
     11 C5          6.5440    0.4430    0.0800 ca        1 796      0.874900
     12 N9          7.7750    0.1580    0.6900 nh        1 796     -0.832900
     13 C10         8.9130    0.9960    0.4560 c3        1 796      0.195100
     14 N6          6.5260    1.2800   -1.0330 nb        1 796     -0.744000
     15 C1          5.3380    1.4290   -1.6360 ca        1 796      0.471200
     16 N24        -1.3650   -1.5250   -0.3780 n         1 796     -0.533900
     17 C25        -2.7360   -1.9680   -0.5150 c3        1 796      0.084700
     18 C27        -2.8840   -3.4370   -1.0040 c3        1 796      0.136800
     19 N43        -2.0190   -4.3600   -0.3150 n3        1 796     -0.929800
     20 C28        -3.5290   -1.0850   -1.4960 c3        1 796     -0.042100
     21 C30        -3.6870    0.3100   -1.0050 ca        1 796     -0.062300
     22 C37        -2.8200    1.3060   -1.4750 ca        1 796     -0.105000
     23 C36        -2.9380    2.6260   -1.0520 ca        1 796     -0.122000
     24 C35        -3.9430    2.9690   -0.1410 ca        1 796      0.023400
     25 CL4        -4.0990    4.5770    0.3810 cl        1 796     -0.084400
     26 C34        -4.8210    1.9970    0.3440 ca        1 796     -0.118000
     27 C33        -4.6880    0.6740   -0.0910 ca        1 796      0.028400
     28 CL2        -5.7810   -0.4780    0.5220 cl        1 796     -0.087400
     29 H17         1.3350   -2.5920    2.6130 ha        1 796      0.177000
     30 H16         3.8050   -1.7310    2.2330 ha        1 796      0.177000
     31 H2          3.2070    0.9540   -1.7190 ha        1 796      0.150000
     32 HN9         7.7140   -0.2490    1.5990 hn        1 796      0.432800
     33 H101        9.7780    0.5790    1.0370 h1        1 796      0.045700
     34 H102        9.1740    0.9920   -0.6370 h1        1 796      0.045700
     35 H103        8.7380    2.0590    0.7740 h1        1 796      0.045700
     36 H1          5.3360    2.0910   -2.5220 h4        1 796      0.026100
     37 HN24       -0.8380   -1.5160   -1.2230 hn        1 796      0.295500
     38 H25        -3.2150   -1.8880    0.5080 h1        1 796      0.096700
     39 H271       -3.9790   -3.6970   -0.9030 h1        1 796      0.029200
     40 H272       -2.6280   -3.4900   -2.1000 h1        1 796      0.029200
     41 H431       -1.9950   -4.1770    0.6700 hn        1 796      0.363800
     42 H432       -2.3140   -5.3020   -0.4760 hn        1 796      0.363800
     43 H281       -3.0240   -1.0790   -2.4990 hc        1 796      0.061700
     44 H282       -4.5400   -1.5550   -1.6370 hc        1 796      0.061700
     45 H37        -2.0270    1.0360   -2.1890 ha        1 796      0.138000
     46 H36        -2.2460    3.3930   -1.4310 ha        1 796      0.150000
     47 H34        -5.6100    2.2680    1.0640 ha        1 796      0.163000
@<TRIPOS>BOND
     1    1    2 2   
     2    2    3 1   
     3    2   16 1   
     4    3    4 1   
     5    3    5 2   
     6    4    7 1   
     7    5    6 1   
     8    5   29 1   
     9    6    7 2   
    10    6   30 1   
    11    7    8 1   
    12    8    9 ar  
    13    8   10 ar  
    14    9   15 ar  
    15    9   31 1   
    16   10   11 ar  
    17   11   12 1   
    18   11   14 ar  
    19   12   13 1   
    20   12   32 1   
    21   13   33 1   
    22   13   34 1   
    23   13   35 1   
    24   14   15 ar  
    25   15   36 1   
    26   16   17 1   
    27   16   37 1   
    28   17   18 1   
    29   17   20 1   
    30   17   38 1   
    31   18   19 1   
    32   18   39 1   
    33   18   40 1   
    34   19   41 1   
    35   19   42 1   
    36   20   21 1   
    37   20   43 1   
    38   20   44 1   
    39   21   22 ar  
    40   21   27 ar  
    41   22   23 ar  
    42   22   45 1   
    43   23   24 ar  
    44   23   46 1   
    45   24   25 1   
    46   24   26 ar  
    47   26   27 ar  
    48   26   47 1   
    49   27   28 1   
@<TRIPOS>SUBSTRUCTURE
     1 796         1 TEMP              0 ****  ****    0 ROOT
