@<TRIPOS>MOLECULE
797
   32    35     1     0     0
SMALL
bcc


@<TRIPOS>ATOM
      1 C1         -0.2630   -0.3010    0.2670 ca        1 797     -0.124900
      2 C2         -1.2940   -1.0330   -0.2860 ca        1 797     -0.062000
      3 C3         -2.6230   -0.5310   -0.2750 ca        1 797     -0.076000
      4 C4         -2.8880    0.7300    0.3190 ca        1 797      0.007000
      5 C5         -1.8090    1.4600    0.8940 ca        1 797     -0.129000
      6 C6         -0.5330    0.9610    0.8680 ca        1 797     -0.101000
      7 C10        -3.6960   -1.2690   -0.8460 ca        1 797     -0.072000
      8 C11        -4.9750   -0.7750   -0.8290 ca        1 797     -0.196000
      9 C12        -5.2300    0.4910   -0.2320 ca        1 797      0.130100
     10 C13        -4.2110    1.2370    0.3340 ca        1 797     -0.164000
     11 O17        -6.4970    1.0280   -0.1940 oh        1 797     -0.495100
     12 C18         1.1030   -0.8000    0.2520 cc        1 797      0.430500
     13 C19         2.3170    0.0120    0.0730 ca        1 797     -0.249900
     14 C20         3.3690   -0.9550    0.1360 ca        1 797      0.079100
     15 O21         2.7830   -2.2220    0.3340 os        1 797     -0.007600
     16 N22         1.4630   -2.0890    0.3960 nd        1 797     -0.393200
     17 C23         2.6350    1.3470   -0.1410 ca        1 797     -0.022000
     18 C24         3.9770    1.6950   -0.2720 ca        1 797     -0.235000
     19 C25         4.9920    0.7160   -0.1950 ca        1 797      0.158100
     20 C26         4.7120   -0.6470    0.0110 ca        1 797     -0.153000
     21 O30         6.3210    1.0390   -0.3200 oh        1 797     -0.489100
     22 H2         -1.1050   -2.0160   -0.7460 ha        1 797      0.149000
     23 H5         -2.0230    2.4330    1.3620 ha        1 797      0.139000
     24 H6          0.2990    1.5200    1.3230 ha        1 797      0.138000
     25 H10        -3.4800   -2.2480   -1.3020 ha        1 797      0.140000
     26 H11        -5.8080   -1.3420   -1.2680 ha        1 797      0.137000
     27 H13        -4.4230    2.2130    0.7920 ha        1 797      0.153000
     28 H17        -7.1010    0.4000   -0.6150 ho        1 797      0.421000
     29 H23         1.8490    2.1140   -0.2100 ha        1 797      0.148000
     30 H24         4.2540    2.7450   -0.4410 ha        1 797      0.140000
     31 H26         5.5100   -1.3980    0.0640 ha        1 797      0.175000
     32 H30         6.3880    1.9960   -0.4610 ho        1 797      0.425000
@<TRIPOS>BOND
     1    1    2 ar  
     2    1    6 ar  
     3    1   12 1   
     4    2    3 ar  
     5    2   22 1   
     6    3    4 ar  
     7    3    7 ar  
     8    4    5 ar  
     9    4   10 ar  
    10    5    6 ar  
    11    5   23 1   
    12    6   24 1   
    13    7    8 ar  
    14    7   25 1   
    15    8    9 ar  
    16    8   26 1   
    17    9   10 ar  
    18    9   11 1   
    19   10   27 1   
    20   11   28 1   
    21   12   13 1   
    22   12   16 2   
    23   13   14 ar  
    24   13   17 ar  
    25   14   15 1   
    26   14   20 ar  
    27   15   16 1   
    28   17   18 ar  
    29   17   29 1   
    30   18   19 ar  
    31   18   30 1   
    32   19   20 ar  
    33   19   21 1   
    34   20   31 1   
    35   21   32 1   
@<TRIPOS>SUBSTRUCTURE
     1 797         1 TEMP              0 ****  ****    0 ROOT
