@<TRIPOS>MOLECULE
797
   32    35     1     0     0
SMALL
bcc


@<TRIPOS>ATOM
      1 C1         -0.0130   -0.0160   -0.0020 ca        1 797     -0.126900
      2 C2          1.3680    0.0160   -0.0210 ca        1 797     -0.061000
      3 C3          2.1040    0.0460    1.1920 ca        1 797     -0.075000
      4 C4          1.4110    0.0500    2.4300 ca        1 797      0.013000
      5 C5         -0.0110    0.0280    2.4220 ca        1 797     -0.132000
      6 C6         -0.7050   -0.0050    1.2400 ca        1 797     -0.099000
      7 C10         3.5280    0.0720    1.1920 ca        1 797     -0.081000
      8 C11         4.2340    0.1010    2.3650 ca        1 797     -0.143000
      9 C12         3.5270    0.1040    3.6030 ca        1 797      0.140100
     10 C13         2.1460    0.0800    3.6430 ca        1 797     -0.225000
     11 O17         4.3140    0.1330    4.7300 oh        1 797     -0.494100
     12 C18        -0.7770   -0.0560   -1.2390 cc        1 797      0.432500
     13 C19        -2.0290   -0.7970   -1.4560 ca        1 797     -0.250900
     14 C20        -2.3510   -0.5020   -2.8160 ca        1 797      0.085100
     15 O21        -1.3490    0.3450   -3.3280 os        1 797     -0.009600
     16 N22        -0.4500    0.5810   -2.3790 nd        1 797     -0.395200
     17 C23        -2.8630   -1.6410   -0.7290 ca        1 797     -0.028000
     18 C24        -3.9930   -2.1580   -1.3520 ca        1 797     -0.180000
     19 C25        -4.2880   -1.8360   -2.6980 ca        1 797      0.162100
     20 C26        -3.4690   -0.9970   -3.4700 ca        1 797     -0.214000
     21 O30        -5.4310   -2.4020   -3.2060 oh        1 797     -0.490100
     22 H2          1.9200    0.0190   -0.9740 ha        1 797      0.149000
     23 H5         -0.5440    0.0410    3.3850 ha        1 797      0.136000
     24 H6         -1.8060   -0.0120    1.2340 ha        1 797      0.138000
     25 H10         4.0540    0.0710    0.2240 ha        1 797      0.141000
     26 H11         5.3330    0.1230    2.3860 ha        1 797      0.155000
     27 H13         1.6040    0.0830    4.5990 ha        1 797      0.137000
     28 H17         3.7320    0.1380    5.5040 ho        1 797      0.422000
     29 H23        -2.6330   -1.9010    0.3150 ha        1 797      0.150000
     30 H24        -4.6770   -2.8280   -0.8110 ha        1 797      0.158000
     31 H26        -3.6930   -0.7510   -4.5140 ha        1 797      0.160000
     32 H30        -5.5280   -2.1160   -4.1270 ho        1 797      0.426000
@<TRIPOS>BOND
     1    1    2 ar  
     2    1    6 ar  
     3    1   12 1   
     4    2    3 ar  
     5    2   22 1   
     6    3    4 ar  
     7    3    7 ar  
     8    4    5 ar  
     9    4   10 ar  
    10    5    6 ar  
    11    5   23 1   
    12    6   24 1   
    13    7    8 ar  
    14    7   25 1   
    15    8    9 ar  
    16    8   26 1   
    17    9   10 ar  
    18    9   11 1   
    19   10   27 1   
    20   11   28 1   
    21   12   13 1   
    22   12   16 2   
    23   13   14 ar  
    24   13   17 ar  
    25   14   15 1   
    26   14   20 ar  
    27   15   16 1   
    28   17   18 ar  
    29   17   29 1   
    30   18   19 ar  
    31   18   30 1   
    32   19   20 ar  
    33   19   21 1   
    34   20   31 1   
    35   21   32 1   
@<TRIPOS>SUBSTRUCTURE
     1 797         1 TEMP              0 ****  ****    0 ROOT
