@<TRIPOS>MOLECULE
797
   32    35     1     0     0
SMALL
bcc


@<TRIPOS>ATOM
      1 C1         -0.0120   -0.0170   -0.0030 ca        1 797     -0.126900
      2 C2          1.3690    0.0130   -0.0220 ca        1 797     -0.061000
      3 C3          2.1050    0.0440    1.1910 ca        1 797     -0.075000
      4 C4          1.4120    0.0510    2.4290 ca        1 797      0.013000
      5 C5         -0.0100    0.0310    2.4210 ca        1 797     -0.132000
      6 C6         -0.7040   -0.0030    1.2390 ca        1 797     -0.099000
      7 C10         3.5290    0.0690    1.1900 ca        1 797     -0.081000
      8 C11         4.2350    0.0990    2.3630 ca        1 797     -0.143000
      9 C12         3.5280    0.1050    3.6020 ca        1 797      0.140100
     10 C13         2.1470    0.0820    3.6420 ca        1 797     -0.225000
     11 O17         4.3160    0.1350    4.7280 oh        1 797     -0.494100
     12 C18        -0.7760   -0.0580   -1.2400 cc        1 797      0.432500
     13 C19        -2.0300   -0.7980   -1.4560 ca        1 797     -0.250900
     14 C20        -2.3520   -0.5040   -2.8160 ca        1 797      0.085100
     15 O21        -1.3480    0.3400   -3.3290 os        1 797     -0.009600
     16 N22        -0.4490    0.5770   -2.3810 nd        1 797     -0.395200
     17 C23        -2.8650   -1.6390   -0.7270 ca        1 797     -0.028000
     18 C24        -3.9960   -2.1550   -1.3490 ca        1 797     -0.180000
     19 C25        -4.2900   -1.8350   -2.6950 ca        1 797      0.162100
     20 C26        -3.4700   -0.9990   -3.4680 ca        1 797     -0.214000
     21 O30        -5.4350   -2.4000   -3.2020 oh        1 797     -0.490100
     22 H2          1.9210    0.0130   -0.9750 ha        1 797      0.149000
     23 H5         -0.5420    0.0470    3.3840 ha        1 797      0.136000
     24 H6         -1.8050   -0.0080    1.2340 ha        1 797      0.138000
     25 H10         4.0550    0.0650    0.2220 ha        1 797      0.141000
     26 H11         5.3340    0.1180    2.3850 ha        1 797      0.155000
     27 H13         1.6050    0.0880    4.5980 ha        1 797      0.137000
     28 H17         3.7340    0.1410    5.5020 ho        1 797      0.422000
     29 H23        -2.6350   -1.8970    0.3180 ha        1 797      0.150000
     30 H24        -4.6810   -2.8230   -0.8060 ha        1 797      0.158000
     31 H26        -3.6940   -0.7540   -4.5130 ha        1 797      0.160000
     32 H30        -5.5310   -2.1160   -4.1240 ho        1 797      0.426000
@<TRIPOS>BOND
     1    1    2 ar  
     2    1    6 ar  
     3    1   12 1   
     4    2    3 ar  
     5    2   22 1   
     6    3    4 ar  
     7    3    7 ar  
     8    4    5 ar  
     9    4   10 ar  
    10    5    6 ar  
    11    5   23 1   
    12    6   24 1   
    13    7    8 ar  
    14    7   25 1   
    15    8    9 ar  
    16    8   26 1   
    17    9   10 ar  
    18    9   11 1   
    19   10   27 1   
    20   11   28 1   
    21   12   13 1   
    22   12   16 2   
    23   13   14 ar  
    24   13   17 ar  
    25   14   15 1   
    26   14   20 ar  
    27   15   16 1   
    28   17   18 ar  
    29   17   29 1   
    30   18   19 ar  
    31   18   30 1   
    32   19   20 ar  
    33   19   21 1   
    34   20   31 1   
    35   21   32 1   
@<TRIPOS>SUBSTRUCTURE
     1 797         1 TEMP              0 ****  ****    0 ROOT
