@<TRIPOS>MOLECULE
797
   32    26     1     0     0
SMALL
bcc


@<TRIPOS>ATOM
      1 C1         -0.0900   -0.4510    0.1750 c1        1 797     -0.003500
      2 C2          1.2990   -0.4400    0.1680 c1        1 797     -0.062000
      3 C3          2.0080   -0.3810    1.3810 c1        1 797     -0.076000
      4 C4          1.3260   -0.3340    2.5740 c1        1 797      0.007000
      5 C5         -0.0810   -0.3450    2.5800 c1        1 797     -0.129000
      6 C6         -0.7800   -0.4030    1.3820 c1        1 797     -0.127000
      7 C10         3.4160   -0.3590    1.3750 c2        1 797     -0.072000
      8 C11         4.1150   -0.2900    2.5720 c1        1 797     -0.196000
      9 C12         3.4250   -0.2420    3.7800 c1        1 797      0.085000
     10 C13         2.0360   -0.2640    3.7880 c2        1 797     -0.164000
     11 O17         4.0730   -0.0230    5.0090 oh        1 797     -0.249000
     12 C18        -0.8710   -0.4330   -0.9690 c1        1 797     -0.025000
     13 C19        -1.6410    0.2120   -1.9420 c1        1 797     -0.166000
     14 C20        -2.2100   -0.7480   -2.7340 c1        1 797     -0.003500
     15 O21        -1.8060   -1.9750   -2.2690 o         1 797     -0.006700
     16 N22        -0.9730   -1.7670   -1.1710 n2        1 797     -0.061300
     17 C23        -1.9020    1.5720   -2.1880 c1        1 797     -0.022000
     18 C24        -2.7350    1.9400   -3.2340 c1        1 797     -0.235000
     19 C25        -3.3120    0.9670   -4.0370 c1        1 797      0.113000
     20 C26        -3.0550   -0.3740   -3.7940 c1        1 797     -0.127000
     21 O30        -4.0070    1.3120   -5.2110 oh        1 797     -0.243000
     22 H2          1.7820   -0.4740   -0.6790 ha        1 797      0.149000
     23 H5         -0.5660   -0.3110    3.4270 ha        1 797      0.139000
     24 H6         -1.7560   -0.4110    1.3870 ha        1 797      0.156500
     25 H10         3.9010   -0.3930    0.5280 ha        1 797      0.140000
     26 H11         5.0920   -0.2750    2.5670 ha        1 797      0.137000
     27 H13         1.5530   -0.2300    4.6350 ha        1 797      0.153000
     28 H17         4.4480   -0.7810    5.2850 ho        1 797      0.220000
     29 H23        -1.4960    2.2570   -1.6230 ha        1 797      0.148000
     30 H24        -2.9170    2.8850   -3.4050 ha        1 797      0.140000
     31 H26        -3.4610   -1.0590   -4.3600 ha        1 797      0.156500
     32 H30        -4.8130    1.6210   -4.9980 ho        1 797      0.224000
@<TRIPOS>BOND
     1    1    6 1   
     2    2    3 1   
     3    2   22 1   
     4    3    7 1   
     5    4    5 1   
     6    4   10 1   
     7    5   23 1   
     8    6   24 1   
     9    7    8 1   
    10    7   25 1   
    11    8   26 1   
    12    9   10 1   
    13    9   11 1   
    14   10   27 1   
    15   11   28 1   
    16   12   13 1   
    17   12   16 1   
    18   13   17 1   
    19   14   20 1   
    20   15   16 2   
    21   17   29 1   
    22   18   19 1   
    23   18   30 1   
    24   19   21 1   
    25   20   31 1   
    26   21   32 1   
@<TRIPOS>SUBSTRUCTURE
     1 797         1 TEMP              0 ****  ****    0 ROOT
