@<TRIPOS>MOLECULE
798
   47    50     1     0     0
SMALL
bcc


@<TRIPOS>ATOM
      1 O8          0.0570    0.6300   -0.0070 o         1 798     -0.536100
      2 C7          1.2740    0.3930    0.0080 c         1 798      0.594300
      3 C9          1.9990    0.2230    1.2880 ca        1 798     -0.167600
      4 C10         1.6070    0.9790    2.4010 ca        1 798     -0.086500
      5 C11         2.2600    0.8260    3.6200 ca        1 798     -0.135500
      6 C12         3.3090   -0.0960    3.7550 ca        1 798      0.016000
      7 C15         3.9850   -0.2590    5.0260 cc        1 798     -0.075000
      8 C16         3.4200   -0.0350    6.2710 cd        1 798     -0.164100
      9 S17         4.4980   -0.3280    7.5040 ss        1 798      0.043200
     10 C18         5.7420   -0.7500    6.4710 cd        1 798     -0.176100
     11 C19         5.3540   -0.6800    5.1540 cc        1 798     -0.138000
     12 C13         3.6870   -0.8630    2.6420 ca        1 798     -0.135500
     13 C14         3.0400   -0.7020    1.4200 ca        1 798     -0.086500
     14 C6          2.0460    0.2710   -1.2450 ca        1 798     -0.208600
     15 C5          1.3860   -0.1540   -2.4100 ca        1 798     -0.049500
     16 C4          2.0710   -0.2700   -3.6100 ca        1 798     -0.199500
     17 C3          3.4410    0.0620   -3.6560 ca        1 798      0.160100
     18 C2          4.1060    0.5040   -2.5050 ca        1 798     -0.199500
     19 C1          3.4030    0.6020   -1.3060 ca        1 798     -0.049500
     20 O20         4.0250   -0.0720   -4.8950 os        1 798     -0.326900
     21 C21         5.4320    0.1970   -4.9630 c3        1 798      0.134400
     22 C22         5.8370   -0.1110   -6.4150 c3        1 798      0.164500
     23 N23         6.0230   -1.5480   -6.6380 n3        1 798     -0.810200
     24 C24         7.3140   -1.7670   -7.2780 c3        1 798      0.153800
     25 C25         8.0250   -0.4170   -7.4690 c3        1 798     -0.097400
     26 C26         7.1580    0.6130   -6.7570 c3        1 798     -0.088400
     27 H10         0.7700    1.6890    2.3010 ha        1 798      0.146500
     28 H11         1.9530    1.4340    4.4840 ha        1 798      0.138000
     29 H16         2.3920    0.2820    6.4450 h4        1 798      0.175000
     30 H18         6.7300   -1.0410    6.8250 h4        1 798      0.173000
     31 H19         5.9910   -0.9010    4.2940 ha        1 798      0.156000
     32 H13         4.4960   -1.6030    2.7380 ha        1 798      0.138000
     33 H14         3.3420   -1.3130    0.5540 ha        1 798      0.146500
     34 H5          0.3110   -0.3920   -2.3590 ha        1 798      0.148500
     35 H4          1.5670   -0.6100   -4.5250 ha        1 798      0.146500
     36 H2          5.1700    0.7750   -2.5320 ha        1 798      0.146500
     37 H1          3.9240    0.9520   -0.4000 ha        1 798      0.148500
     38 H21         5.9820   -0.4440   -4.2270 h1        1 798      0.049700
     39 H21A        5.6060    1.2820   -4.7410 h1        1 798      0.049700
     40 H22         5.0120    0.2920   -7.0750 h1        1 798      0.050700
     41 HN23        5.2700   -1.9190   -7.1830 hn        1 798      0.367800
     42 H24         7.2110   -2.2990   -8.2630 h1        1 798      0.042700
     43 H24A        7.9150   -2.4290   -6.5960 h1        1 798      0.042700
     44 H25         8.1190   -0.1760   -8.5560 hc        1 798      0.049200
     45 H25A        9.0540   -0.4500   -7.0370 hc        1 798      0.049200
     46 H26         7.6640    0.9760   -5.8280 hc        1 798      0.050700
     47 H26A        6.9560    1.4980   -7.4060 hc        1 798      0.050700
@<TRIPOS>BOND
     1    1    2 2   
     2    2    3 1   
     3    2   14 1   
     4    3    4 ar  
     5    3   13 ar  
     6    4    5 ar  
     7    4   27 1   
     8    5    6 ar  
     9    5   28 1   
    10    6    7 1   
    11    6   12 ar  
    12    7    8 2   
    13    7   11 1   
    14    8    9 1   
    15    8   29 1   
    16    9   10 1   
    17   10   11 2   
    18   10   30 1   
    19   11   31 1   
    20   12   13 ar  
    21   12   32 1   
    22   13   33 1   
    23   14   15 ar  
    24   14   19 ar  
    25   15   16 ar  
    26   15   34 1   
    27   16   17 ar  
    28   16   35 1   
    29   17   18 ar  
    30   17   20 1   
    31   18   19 ar  
    32   18   36 1   
    33   19   37 1   
    34   20   21 1   
    35   21   22 1   
    36   21   38 1   
    37   21   39 1   
    38   22   23 1   
    39   22   26 1   
    40   22   40 1   
    41   23   24 1   
    42   23   41 1   
    43   24   25 1   
    44   24   42 1   
    45   24   43 1   
    46   25   26 1   
    47   25   44 1   
    48   25   45 1   
    49   26   46 1   
    50   26   47 1   
@<TRIPOS>SUBSTRUCTURE
     1 798         1 TEMP              0 ****  ****    0 ROOT
