@<TRIPOS>MOLECULE
798
   47    50     1     0     0
SMALL
bcc


@<TRIPOS>ATOM
      1 O8         -0.8840    3.8260    0.2280 o         1 798     -0.534100
      2 C7         -0.7000    2.6040    0.1370 c         1 798      0.593300
      3 C9         -1.8420    1.6690    0.0240 ca        1 798     -0.168600
      4 C10        -3.0340    1.9640    0.6990 ca        1 798     -0.087000
      5 C11        -4.1290    1.1110    0.5960 ca        1 798     -0.135500
      6 C12        -4.0600   -0.0450   -0.1970 ca        1 798      0.017000
      7 C15        -5.2020   -0.9290   -0.3090 cc        1 798     -0.076000
      8 C16        -6.5290   -0.5470   -0.1860 cd        1 798     -0.164100
      9 S17        -7.5650   -1.8350   -0.3780 ss        1 798      0.045200
     10 C18        -6.3350   -2.9380   -0.6220 cd        1 798     -0.177100
     11 C19        -5.0970   -2.3400   -0.5660 cc        1 798     -0.138000
     12 C13        -2.8690   -0.3270   -0.8840 ca        1 798     -0.135500
     13 C14        -1.7710    0.5210   -0.7730 ca        1 798     -0.087000
     14 C6          0.6630    2.0330    0.1400 ca        1 798     -0.205600
     15 C5          1.7280    2.8180   -0.3320 ca        1 798     -0.050500
     16 C4          3.0250    2.3260   -0.3330 ca        1 798     -0.197500
     17 C3          3.2680    1.0280    0.1620 ca        1 798      0.152100
     18 C2          2.2170    0.2410    0.6500 ca        1 798     -0.197500
     19 C1          0.9200    0.7510    0.6330 ca        1 798     -0.050500
     20 O20         4.5880    0.6340    0.1160 os        1 798     -0.323900
     21 C21         4.8760   -0.6630    0.6500 c3        1 798      0.101400
     22 C22         6.4010   -0.8450    0.5440 c3        1 798      0.164500
     23 N23         6.9500   -0.7830   -0.8110 n3        1 798     -0.801200
     24 C24         7.4860   -2.0900   -1.1720 c3        1 798      0.149800
     25 C25         7.4010   -3.0280    0.0430 c3        1 798     -0.094400
     26 C26         6.7820   -2.2070    1.1670 c3        1 798     -0.090400
     27 H10        -3.0970    2.8810    1.3060 ha        1 798      0.146000
     28 H11        -5.0570    1.3440    1.1400 ha        1 798      0.138000
     29 H16        -6.8730    0.4690    0.0010 h4        1 798      0.175000
     30 H18        -6.5180   -3.9970   -0.8010 h4        1 798      0.173000
     31 H19        -4.1410   -2.8530   -0.6880 ha        1 798      0.155000
     32 H13        -2.8060   -1.2200   -1.5240 ha        1 798      0.138000
     33 H14        -0.8430    0.2930   -1.3220 ha        1 798      0.146000
     34 H5          1.5210    3.8370   -0.6980 ha        1 798      0.150000
     35 H4          3.8650    2.9280   -0.7050 ha        1 798      0.148500
     36 H2          2.3970   -0.7660    1.0480 ha        1 798      0.148500
     37 H1          0.0910    0.1360    1.0210 ha        1 798      0.150000
     38 H21         4.5640   -0.7070    1.7250 h1        1 798      0.044700
     39 H21A        4.3250   -1.4410    0.0600 h1        1 798      0.044700
     40 H22         6.8850   -0.0020    1.1170 h1        1 798      0.081700
     41 HN23        6.2590   -0.4690   -1.4650 hn        1 798      0.369800
     42 H24         6.9500   -2.5430   -2.0510 h1        1 798      0.041200
     43 H24A        8.5590   -1.9360   -1.4730 h1        1 798      0.041200
     44 H25         6.7730   -3.9200   -0.1950 hc        1 798      0.048700
     45 H25A        8.4180   -3.3930    0.3260 hc        1 798      0.048700
     46 H26         7.5150   -2.0490    1.9950 hc        1 798      0.050200
     47 H26A        5.8880   -2.7220    1.5960 hc        1 798      0.050200
@<TRIPOS>BOND
     1    1    2 2   
     2    2    3 1   
     3    2   14 1   
     4    3    4 ar  
     5    3   13 ar  
     6    4    5 ar  
     7    4   27 1   
     8    5    6 ar  
     9    5   28 1   
    10    6    7 1   
    11    6   12 ar  
    12    7    8 2   
    13    7   11 1   
    14    8    9 1   
    15    8   29 1   
    16    9   10 1   
    17   10   11 2   
    18   10   30 1   
    19   11   31 1   
    20   12   13 ar  
    21   12   32 1   
    22   13   33 1   
    23   14   15 ar  
    24   14   19 ar  
    25   15   16 ar  
    26   15   34 1   
    27   16   17 ar  
    28   16   35 1   
    29   17   18 ar  
    30   17   20 1   
    31   18   19 ar  
    32   18   36 1   
    33   19   37 1   
    34   20   21 1   
    35   21   22 1   
    36   21   38 1   
    37   21   39 1   
    38   22   23 1   
    39   22   26 1   
    40   22   40 1   
    41   23   24 1   
    42   23   41 1   
    43   24   25 1   
    44   24   42 1   
    45   24   43 1   
    46   25   26 1   
    47   25   44 1   
    48   25   45 1   
    49   26   46 1   
    50   26   47 1   
@<TRIPOS>SUBSTRUCTURE
     1 798         1 TEMP              0 ****  ****    0 ROOT
