@<TRIPOS>MOLECULE
798
   47    50     1     0     0
SMALL
bcc


@<TRIPOS>ATOM
      1 O8          0.0580    0.6400   -0.0080 o         1 798     -0.536100
      2 C7          1.2740    0.4000    0.0070 c         1 798      0.594300
      3 C9          1.9980    0.2260    1.2870 ca        1 798     -0.167600
      4 C10         1.6070    0.9800    2.4010 ca        1 798     -0.086500
      5 C11         2.2590    0.8240    3.6200 ca        1 798     -0.135500
      6 C12         3.3070   -0.1010    3.7540 ca        1 798      0.016000
      7 C15         3.9810   -0.2680    5.0250 cc        1 798     -0.075000
      8 C16         3.4160   -0.0460    6.2710 cd        1 798     -0.164100
      9 S17         4.4930   -0.3440    7.5030 ss        1 798      0.043200
     10 C18         5.7370   -0.7660    6.4700 cd        1 798     -0.176100
     11 C19         5.3500   -0.6920    5.1520 cc        1 798     -0.138000
     12 C13         3.6840   -0.8660    2.6390 ca        1 798     -0.135500
     13 C14         3.0380   -0.7020    1.4180 ca        1 798     -0.086500
     14 C6          2.0470    0.2780   -1.2460 ca        1 798     -0.208600
     15 C5          1.3870   -0.1440   -2.4120 ca        1 798     -0.049500
     16 C4          2.0720   -0.2590   -3.6120 ca        1 798     -0.199500
     17 C3          3.4430    0.0700   -3.6570 ca        1 798      0.160100
     18 C2          4.1080    0.5080   -2.5040 ca        1 798     -0.199500
     19 C1          3.4040    0.6060   -1.3060 ca        1 798     -0.049500
     20 O20         4.0270   -0.0640   -4.8960 os        1 798     -0.326900
     21 C21         5.4350    0.2000   -4.9620 c3        1 798      0.134400
     22 C22         5.8400   -0.1070   -6.4130 c3        1 798      0.164500
     23 N23         6.0220   -1.5450   -6.6380 n3        1 798     -0.810200
     24 C24         7.3130   -1.7670   -7.2760 c3        1 798      0.153800
     25 C25         8.0280   -0.4200   -7.4660 c3        1 798     -0.097400
     26 C26         7.1640    0.6120   -6.7540 c3        1 798     -0.088400
     27 H10         0.7720    1.6920    2.3020 ha        1 798      0.146500
     28 H11         1.9520    1.4290    4.4860 ha        1 798      0.138000
     29 H16         2.3890    0.2730    6.4450 h4        1 798      0.175000
     30 H18         6.7240   -1.0590    6.8240 h4        1 798      0.173000
     31 H19         5.9870   -0.9120    4.2930 ha        1 798      0.156000
     32 H13         4.4910   -1.6080    2.7340 ha        1 798      0.138000
     33 H14         3.3390   -1.3120    0.5510 ha        1 798      0.146500
     34 H5          0.3110   -0.3790   -2.3620 ha        1 798      0.148500
     35 H4          1.5680   -0.5970   -4.5280 ha        1 798      0.146500
     36 H2          5.1730    0.7770   -2.5310 ha        1 798      0.146500
     37 H1          3.9250    0.9540   -0.3990 ha        1 798      0.148500
     38 H21         5.9820   -0.4430   -4.2260 h1        1 798      0.049700
     39 H21A        5.6130    1.2850   -4.7390 h1        1 798      0.049700
     40 H22         5.0170    0.2990   -7.0750 h1        1 798      0.050700
     41 HN23        5.2690   -1.9130   -7.1840 hn        1 798      0.367800
     42 H24         7.9120   -2.4310   -6.5940 h1        1 798      0.042700
     43 H24A        7.2090   -2.2980   -8.2610 h1        1 798      0.042700
     44 H25         9.0570   -0.4560   -7.0330 hc        1 798      0.049200
     45 H25A        8.1240   -0.1780   -8.5530 hc        1 798      0.049200
     46 H26         7.6700    0.9740   -5.8240 hc        1 798      0.050700
     47 H26A        6.9650    1.4990   -7.4030 hc        1 798      0.050700
@<TRIPOS>BOND
     1    1    2 2   
     2    2    3 1   
     3    2   14 1   
     4    3    4 ar  
     5    3   13 ar  
     6    4    5 ar  
     7    4   27 1   
     8    5    6 ar  
     9    5   28 1   
    10    6    7 1   
    11    6   12 ar  
    12    7    8 2   
    13    7   11 1   
    14    8    9 1   
    15    8   29 1   
    16    9   10 1   
    17   10   11 2   
    18   10   30 1   
    19   11   31 1   
    20   12   13 ar  
    21   12   32 1   
    22   13   33 1   
    23   14   15 ar  
    24   14   19 ar  
    25   15   16 ar  
    26   15   34 1   
    27   16   17 ar  
    28   16   35 1   
    29   17   18 ar  
    30   17   20 1   
    31   18   19 ar  
    32   18   36 1   
    33   19   37 1   
    34   20   21 1   
    35   21   22 1   
    36   21   38 1   
    37   21   39 1   
    38   22   23 1   
    39   22   26 1   
    40   22   40 1   
    41   23   24 1   
    42   23   41 1   
    43   24   25 1   
    44   24   42 1   
    45   24   43 1   
    46   25   26 1   
    47   25   44 1   
    48   25   45 1   
    49   26   46 1   
    50   26   47 1   
@<TRIPOS>SUBSTRUCTURE
     1 798         1 TEMP              0 ****  ****    0 ROOT
