@<TRIPOS>MOLECULE
798
   47    41     1     0     0
SMALL
bcc


@<TRIPOS>ATOM
      1 O8         -2.0520    1.8390    2.5360 o         1 798     -0.297000
      2 C7         -1.2580    0.9550    2.2810 c1        1 798      0.313000
      3 C9         -1.0460   -0.1800    3.2620 c2        1 798     -0.148000
      4 C10        -0.1700   -1.2090    2.9510 c2        1 798     -0.094000
      5 C11        -0.0450   -2.2950    3.8040 c1        1 798     -0.136000
      6 C12        -0.7960   -2.3520    4.9670 c1        1 798      0.018000
      7 C15        -0.7420   -3.4820    5.7710 c1        1 798     -0.106000
      8 C16        -1.5650   -4.6680    5.6260 c1        1 798     -0.440500
      9 S17        -1.1630   -5.6670    6.7430 ss        1 798      0.583000
     10 C18        -0.0370   -5.0050    7.5800 c1        1 798     -0.440500
     11 C19         0.2300   -3.6960    7.0130 c1        1 798     -0.106000
     12 C13        -1.6720   -1.3240    5.2780 c1        1 798     -0.135000
     13 C14        -1.7970   -0.2380    4.4250 c1        1 798     -0.079000
     14 C6         -0.5130    0.9650    0.9620 c1        1 798     -0.185000
     15 C5         -0.9610    0.1820   -0.0910 c2        1 798     -0.060000
     16 C4         -0.3340    0.2570   -1.3250 c1        1 798     -0.173000
     17 C3          0.7400    1.1130   -1.5060 c1        1 798      0.108000
     18 C2          1.1880    1.8950   -0.4540 c1        1 798     -0.221000
     19 C1          0.5620    1.8210    0.7810 c1        1 798     -0.040000
     20 O20         1.3340    1.2350   -2.7730 os        1 798     -0.206000
     21 C21         0.5800    1.9980   -3.6850 c3        1 798     -0.035000
     22 C22         1.3100    2.0490   -5.0370 c3        1 798     -0.046000
     23 N23         0.8950    3.3790   -5.8370 n3        1 798     -0.266000
     24 C24         1.1150    3.1330   -7.0700 c3        1 798     -0.094000
     25 C25         0.9780    1.6080   -7.2040 c3        1 798     -0.182000
     26 C26         0.9530    1.0690   -5.7610 c3        1 798     -0.174000
     27 H10         0.3590   -1.1680    2.1320 ha        1 798      0.142000
     28 H11         0.5720   -3.0190    3.5850 ha        1 798      0.137000
     29 H16        -2.2500   -4.8120    4.9460 DU        1 798      0.167667
     30 H18         0.4130   -5.3990    8.3510 DU        1 798      0.167667
     31 H19         0.8910   -3.0570    7.3380 DU        1 798      0.167667
     32 H13        -2.2010   -1.3640    6.0970 ha        1 798      0.139000
     33 H14        -2.4130    0.4860    4.6440 ha        1 798      0.151000
     34 H5         -1.7180   -0.4210    0.0370 ha        1 798      0.146000
     35 H4         -0.6500   -0.2950   -2.0670 ha        1 798      0.153000
     36 H2          1.9450    2.4990   -0.5810 ha        1 798      0.142000
     37 H1          0.8770    2.3720    1.5230 ha        1 798      0.154000
     38 H21        -0.3010    1.5870   -3.8050 h1        1 798      0.085000
     39 H21A        0.4710    2.9080   -3.3380 h1        1 798      0.085000
     40 H22         2.2780    2.0290   -4.8970 h1        1 798      0.121000
     41 HN23        0.0040    3.5440   -5.7130 hn        1 798      0.141000
     42 H24         0.4500    3.5850   -7.6320 h1        1 798      0.088500
     43 H24A        2.0190    3.4160   -7.3180 h1        1 798      0.088500
     44 H25         0.1450    1.3820   -7.6640 hc        1 798      0.088000
     45 H25A        1.7430    1.2400   -7.6890 hc        1 798      0.088000
     46 H26         1.5850    0.3260   -5.6650 hc        1 798      0.094500
     47 H26A        0.0480    0.7800   -5.5220 hc        1 798      0.094500
@<TRIPOS>BOND
     1    1    2 1   
     2    2    3 1   
     3    3    4 1   
     4    3   13 1   
     5    4    5 1   
     6    4   27 1   
     7    5   28 1   
     8    6   12 1   
     9    7    8 1   
    10    7   11 1   
    11    8    9 1   
    12    9   10 1   
    13   10   11 1   
    14   12   32 1   
    15   13   33 1   
    16   14   15 1   
    17   14   19 1   
    18   15   16 1   
    19   15   34 1   
    20   16   35 1   
    21   17   18 1   
    22   17   20 1   
    23   18   36 1   
    24   19   37 1   
    25   20   21 1   
    26   21   22 1   
    27   21   38 1   
    28   21   39 1   
    29   22   23 1   
    30   22   26 1   
    31   22   40 1   
    32   23   24 1   
    33   23   41 1   
    34   24   25 1   
    35   24   42 1   
    36   24   43 1   
    37   25   26 1   
    38   25   44 1   
    39   25   45 1   
    40   26   46 1   
    41   26   47 1   
@<TRIPOS>SUBSTRUCTURE
     1 798         1 TEMP              0 ****  ****    0 ROOT
