@<TRIPOS>MOLECULE
79M
   59    58     1     0     0
SMALL
bcc


@<TRIPOS>ATOM
      1 C19        -0.6450    0.6070    0.4120 c3        1 79M     -0.092100
      2 C8          8.1350   -0.1250    5.1090 c2        1 79M     -0.171200
      3 C7          9.3840   -0.5510    5.3280 c2        1 79M     -0.176200
      4 C15         0.7410    0.0170    0.3860 c3        1 79M     -0.080400
      5 C9          7.3260   -0.5180    3.9310 c3        1 79M     -0.049200
      6 C6         10.1100   -1.4690    4.4200 c3        1 79M     -0.048200
      7 C21        17.9650   -4.8170    3.3960 c3        1 79M      0.138400
      8 C14         1.5460    0.4340    1.5990 c3        1 79M     -0.079400
      9 C10         5.9340    0.0790    3.9640 c3        1 79M     -0.077400
     10 C5         11.5250   -1.7390    4.8900 c3        1 79M     -0.077400
     11 C13         2.9370   -0.1610    1.5680 c3        1 79M     -0.079400
     12 C11         5.1320   -0.3390    2.7500 c3        1 79M     -0.079400
     13 C4         12.2440   -2.6760    3.9430 c3        1 79M     -0.079400
     14 C12         3.7400    0.2560    2.7810 c3        1 79M     -0.079400
     15 C3         13.6550   -2.9490    4.4160 c3        1 79M     -0.079400
     16 C2         14.3750   -3.8700    3.4540 c3        1 79M     -0.127400
     17 C24        20.1300   -4.2920    2.2310 c3        1 79M      0.092400
     18 C22        18.7660   -4.9800    2.1030 c3        1 79M      0.140100
     19 O19        16.0700   -4.4730    5.1440 o         1 79M     -0.542000
     20 C1         15.7210   -4.2550    3.9830 c         1 79M      0.634100
     21 O20        16.6580   -4.3810    2.9920 os        1 79M     -0.444900
     22 O23        18.9330   -6.3760    1.9050 oh        1 79M     -0.599800
     23 O25        20.8120   -4.5470    1.0140 oh        1 79M     -0.611800
     24 H21C       13.7900   -4.8190    3.3090 hc        1 79M      0.079200
     25 H22C       14.4900   -3.3820    2.4500 hc        1 79M      0.079200
     26 H31C       14.2190   -1.9830    4.5040 hc        1 79M      0.057700
     27 H32C       13.6360   -3.4160    5.4370 hc        1 79M      0.057700
     28 H41C       11.6780   -3.6420    3.8670 hc        1 79M      0.041200
     29 H42C       12.2700   -2.2260    2.9150 hc        1 79M      0.041200
     30 H51C       12.0890   -0.7720    4.9630 hc        1 79M      0.044700
     31 H52C       11.5010   -2.1890    5.9180 hc        1 79M      0.044700
     32 H61C       10.1350   -1.0300    3.3850 hc        1 79M      0.047200
     33 H62C        9.5470   -2.4400    4.3430 hc        1 79M      0.047200
     34 H7          9.9340   -0.2220    6.2250 ha        1 79M      0.123000
     35 H8          7.6470    0.5570    5.8240 ha        1 79M      0.123000
     36 H91         7.2540   -1.6390    3.8830 hc        1 79M      0.047700
     37 H92         7.8530   -0.1900    2.9920 hc        1 79M      0.047700
     38 H101        5.4060   -0.2510    4.8960 hc        1 79M      0.041700
     39 H102        6.0050    1.1980    4.0010 hc        1 79M      0.041700
     40 H111        5.0610   -1.4580    2.7130 hc        1 79M      0.039700
     41 H112        5.6610   -0.0100    1.8170 hc        1 79M      0.039700
     42 H121        3.2110   -0.0730    3.7140 hc        1 79M      0.039700
     43 H122        3.8110    1.3750    2.8190 hc        1 79M      0.039700
     44 H131        2.8670   -1.2800    1.5300 hc        1 79M      0.039700
     45 H132        3.4660    0.1680    0.6350 hc        1 79M      0.039700
     46 H141        1.0160    0.1040    2.5310 hc        1 79M      0.039700
     47 H142        1.6160    1.5530    1.6360 hc        1 79M      0.039700
     48 H151        1.2730    0.3450   -0.5460 hc        1 79M      0.038700
     49 H152        0.6740   -1.1030    0.3490 hc        1 79M      0.038700
     50 H191       -0.5980    1.7230    0.4240 hc        1 79M      0.032700
     51 H192       -1.1990    0.2710    1.3220 hc        1 79M      0.032700
     52 H193       -1.2200    0.2870   -0.4900 hc        1 79M      0.032700
     53 H211       18.4100   -4.0390    4.0680 h1        1 79M      0.068200
     54 H212       17.8800   -5.7910    3.9460 h1        1 79M      0.068200
     55 H22        18.2050   -4.5420    1.2300 h1        1 79M      0.069700
     56 H23        19.4970   -6.4780    1.1270 ho        1 79M      0.421000
     57 H241       20.7040   -4.7190    3.0950 h1        1 79M      0.037700
     58 H242       19.9960   -3.1870    2.3740 h1        1 79M      0.037700
     59 H25        21.7050   -4.1980    1.1150 ho        1 79M      0.410000
@<TRIPOS>BOND
     1    1    4 1   
     2    1   50 1   
     3    1   51 1   
     4    1   52 1   
     5    2    3 2   
     6    2    5 1   
     7    2   35 1   
     8    3    6 1   
     9    3   34 1   
    10    4    8 1   
    11    4   48 1   
    12    4   49 1   
    13    5    9 1   
    14    5   36 1   
    15    5   37 1   
    16    6   10 1   
    17    6   32 1   
    18    6   33 1   
    19    7   18 1   
    20    7   21 1   
    21    7   53 1   
    22    7   54 1   
    23    8   11 1   
    24    8   46 1   
    25    8   47 1   
    26    9   12 1   
    27    9   38 1   
    28    9   39 1   
    29   10   13 1   
    30   10   30 1   
    31   10   31 1   
    32   11   14 1   
    33   11   44 1   
    34   11   45 1   
    35   12   14 1   
    36   12   40 1   
    37   12   41 1   
    38   13   15 1   
    39   13   28 1   
    40   13   29 1   
    41   14   42 1   
    42   14   43 1   
    43   15   16 1   
    44   15   26 1   
    45   15   27 1   
    46   16   20 1   
    47   16   24 1   
    48   16   25 1   
    49   17   18 1   
    50   17   23 1   
    51   17   57 1   
    52   17   58 1   
    53   18   22 1   
    54   18   55 1   
    55   19   20 2   
    56   20   21 1   
    57   22   56 1   
    58   23   59 1   
@<TRIPOS>SUBSTRUCTURE
     1 79M         1 TEMP              0 ****  ****    0 ROOT
