@<TRIPOS>MOLECULE
79M
   59    58     1     0     0
SMALL
bcc


@<TRIPOS>ATOM
      1 C19        -0.6390    0.5930    0.3990 c3        1 79M     -0.092100
      2 C8          8.1370   -0.1100    5.1070 c2        1 79M     -0.171200
      3 C7          9.3810   -0.5450    5.3360 c2        1 79M     -0.176200
      4 C15         0.7510    0.0110    0.3720 c3        1 79M     -0.080400
      5 C9          7.3330   -0.5020    3.9250 c3        1 79M     -0.049200
      6 C6         10.1050   -1.4760    4.4390 c3        1 79M     -0.048200
      7 C21        17.9670   -4.8050    3.4030 c3        1 79M      0.138400
      8 C14         1.5510    0.4270    1.5880 c3        1 79M     -0.079400
      9 C10         5.9380    0.0870    3.9590 c3        1 79M     -0.077400
     10 C5         11.5240   -1.7310    4.9020 c3        1 79M     -0.077400
     11 C13         2.9460   -0.1600    1.5570 c3        1 79M     -0.079400
     12 C11         5.1390   -0.3300    2.7430 c3        1 79M     -0.079400
     13 C4         12.2400   -2.6820    3.9650 c3        1 79M     -0.079400
     14 C12         3.7440    0.2570    2.7740 c3        1 79M     -0.079400
     15 C3         13.6570   -2.9380    4.4300 c3        1 79M     -0.079400
     16 C2         14.3730   -3.8740    3.4790 c3        1 79M     -0.127400
     17 C24        20.1150   -4.3000    2.2000 c3        1 79M      0.092400
     18 C22        18.7530   -4.9970    2.1050 c3        1 79M      0.140100
     19 O19        16.0900   -4.4290    5.1640 o         1 79M     -0.541000
     20 C1         15.7260   -4.2400    4.0020 c         1 79M      0.634100
     21 O20        16.6520   -4.3840    3.0040 os        1 79M     -0.444900
     22 O23        18.9230   -6.3960    1.9390 oh        1 79M     -0.599800
     23 O25        20.7850   -4.5820    0.9810 oh        1 79M     -0.611800
     24 H21C       13.7920   -4.8280    3.3590 hc        1 79M      0.079200
     25 H22C       14.4740   -3.4050    2.4650 hc        1 79M      0.079200
     26 H31C       14.2160   -1.9670    4.4950 hc        1 79M      0.057700
     27 H32C       13.6500   -3.3850    5.4600 hc        1 79M      0.057700
     28 H41C       11.6780   -3.6520    3.9130 hc        1 79M      0.041200
     29 H42C       12.2540   -2.2510    2.9290 hc        1 79M      0.041200
     30 H51C       12.0840   -0.7600    4.9530 hc        1 79M      0.044700
     31 H52C       11.5120   -2.1620    5.9370 hc        1 79M      0.044700
     32 H61C       10.1190   -1.0560    3.3950 hc        1 79M      0.047200
     33 H62C        9.5460   -2.4510    4.3860 hc        1 79M      0.047200
     34 H7          9.9290   -0.2160    6.2340 ha        1 79M      0.123000
     35 H8          7.6510    0.5810    5.8140 ha        1 79M      0.123000
     36 H91         7.2660   -1.6240    3.8730 hc        1 79M      0.047700
     37 H92         7.8590   -0.1670    2.9890 hc        1 79M      0.047700
     38 H101        5.4100   -0.2500    4.8900 hc        1 79M      0.041700
     39 H102        6.0020    1.2060    4.0010 hc        1 79M      0.041700
     40 H111        5.0750   -1.4500    2.7000 hc        1 79M      0.039700
     41 H112        5.6680    0.0060    1.8120 hc        1 79M      0.039700
     42 H121        3.2160   -0.0790    3.7040 hc        1 79M      0.039700
     43 H122        3.8090    1.3760    2.8160 hc        1 79M      0.039700
     44 H131        2.8820   -1.2790    1.5150 hc        1 79M      0.039700
     45 H132        3.4750    0.1760    0.6270 hc        1 79M      0.039700
     46 H141        1.0220    0.0910    2.5180 hc        1 79M      0.039700
     47 H142        1.6150    1.5470    1.6310 hc        1 79M      0.039700
     48 H151        1.2830    0.3470   -0.5570 hc        1 79M      0.038700
     49 H152        0.6900   -1.1080    0.3300 hc        1 79M      0.038700
     50 H191       -0.5990    1.7100    0.4150 hc        1 79M      0.032700
     51 H192       -1.1930    0.2500    1.3050 hc        1 79M      0.032700
     52 H193       -1.2110    0.2750   -0.5060 hc        1 79M      0.032700
     53 H211       18.4160   -4.0090    4.0500 h1        1 79M      0.068200
     54 H212       17.8920   -5.7650    3.9770 h1        1 79M      0.068200
     55 H22        18.1800   -4.5820    1.2280 h1        1 79M      0.069700
     56 H23        19.4790   -6.5140    1.1570 ho        1 79M      0.421000
     57 H241       20.7010   -4.7040    3.0670 h1        1 79M      0.037700
     58 H242       19.9790   -3.1930    2.3180 h1        1 79M      0.037700
     59 H25        21.6770   -4.2270    1.0640 ho        1 79M      0.410000
@<TRIPOS>BOND
     1    1    4 1   
     2    1   50 1   
     3    1   51 1   
     4    1   52 1   
     5    2    3 2   
     6    2    5 1   
     7    2   35 1   
     8    3    6 1   
     9    3   34 1   
    10    4    8 1   
    11    4   48 1   
    12    4   49 1   
    13    5    9 1   
    14    5   36 1   
    15    5   37 1   
    16    6   10 1   
    17    6   32 1   
    18    6   33 1   
    19    7   18 1   
    20    7   21 1   
    21    7   53 1   
    22    7   54 1   
    23    8   11 1   
    24    8   46 1   
    25    8   47 1   
    26    9   12 1   
    27    9   38 1   
    28    9   39 1   
    29   10   13 1   
    30   10   30 1   
    31   10   31 1   
    32   11   14 1   
    33   11   44 1   
    34   11   45 1   
    35   12   14 1   
    36   12   40 1   
    37   12   41 1   
    38   13   15 1   
    39   13   28 1   
    40   13   29 1   
    41   14   42 1   
    42   14   43 1   
    43   15   16 1   
    44   15   26 1   
    45   15   27 1   
    46   16   20 1   
    47   16   24 1   
    48   16   25 1   
    49   17   18 1   
    50   17   23 1   
    51   17   57 1   
    52   17   58 1   
    53   18   22 1   
    54   18   55 1   
    55   19   20 2   
    56   20   21 1   
    57   22   56 1   
    58   23   59 1   
@<TRIPOS>SUBSTRUCTURE
     1 79M         1 TEMP              0 ****  ****    0 ROOT
