@<TRIPOS>MOLECULE
79N
   59    76     1     0     0
SMALL
bcc


@<TRIPOS>ATOM
      1 C           0.0000    0.0000    0.0000 DU        1 79N      0.291000
      2 O          15.9810   -2.7410    4.2440 o         1 79N     -0.394000
      3 C1          1.5300    0.0000    0.0000 DU        1 79N     -0.115000
      4 O1         16.2470   -4.2140    2.6180 os        1 79N      0.011000
      5 C2          2.0390    0.0000    1.4430 DU        1 79N     -0.335000
      6 O2         18.1270   -4.5590    0.4560 oh        1 79N     -0.466000
      7 C3          3.5700    0.0000    1.4440 c3        1 79N     -0.496000
      8 C4          4.0790    0.0000    2.8860 DU        1 79N      0.209000
      9 C5          5.6090    0.0010    2.8870 DU        1 79N      0.001000
     10 C6          6.1180    0.0010    4.3300 DU        1 79N     -0.258000
     11 C7          7.6480    0.0010    4.3310 DU        1 79N     -0.164000
     12 C8          8.1500    0.0010    5.7510 c3        1 79N     -0.202000
     13 C9          9.0210   -0.8980    6.1400 c3        1 79N     -0.222000
     14 C10         9.6490   -1.8230    5.1290 DU        1 79N     -0.387000
     15 C11        11.1730   -1.7450    5.2450 DU        1 79N     -0.263000
     16 C12        11.8110   -2.6840    4.2190 DU        1 79N     -0.308000
     17 C13        13.3340   -2.6080    4.3360 DU        1 79N     -0.339000
     18 C14        13.9730   -3.5470    3.3100 c3        1 79N     -0.535000
     19 C15        15.4740   -3.4710    3.4250 c2        1 79N      0.250000
     20 C16        17.6840   -4.0910    2.7860 DU        1 79N     -0.177000
     21 C17        18.3930   -5.0070    1.7860 DU        1 79N     -0.231000
     22 C18        19.9010   -4.9720    2.0440 DU        1 79N     -0.645000
     23 H           1.0560   -0.2360    0.0440 ha        1 79N      0.080000
     24 HA         -0.3610    0.0000   -1.0210 ha        1 79N      0.080000
     25 HB         -0.3610   -0.8850    0.5110 ha        1 79N      0.080000
     26 H1          0.5780    0.4470    0.2580 DU        1 79N      0.011000
     27 H1A         1.8910    0.8850   -0.5110 ha        1 79N      0.164000
     28 H2          1.9660   -0.4470    0.4590 DU        1 79N      0.149000
     29 H2A         1.6780    0.8840    1.9530 ha        1 79N      0.113000
     30 H3          2.6170   -0.4470    1.7010 DU        1 79N      0.223000
     31 H3A         3.9310   -0.8840    0.9330 hc        1 79N      0.102000
     32 HO3        19.6800   -5.5570    1.1770 DU        1 79N      0.264000
     33 H4          5.1290   -0.2390    2.7730 DU        1 79N     -0.093000
     34 H4A         3.7170    0.8850    3.3970 ha        1 79N      0.088000
     35 H5          4.6570   -0.4470    3.1450 DU        1 79N     -0.054000
     36 H5A         5.9700    0.8850    2.3770 ha        1 79N      0.117000
     37 H6          6.0450   -0.4470    3.3460 DU        1 79N      0.186000
     38 H6A         5.7570    0.8850    4.8410 ha        1 79N      0.115000
     39 H7          6.6960   -0.4470    4.5890 DU        1 79N      0.171000
     40 H7A         8.0100    0.8850    3.8200 ha        1 79N      0.104000
     41 H8          8.0790   -0.4500    4.7690 DU        1 79N      0.177000
     42 H9          8.3320   -0.0820    6.3190 DU        1 79N      0.124000
     43 H10         9.5200   -1.3770    6.1080 DU        1 79N      0.250000
     44 H10A        9.3240   -2.8390    5.3170 ha        1 79N      0.120000
     45 H11        10.2530   -1.6350    4.6830 DU        1 79N      0.187000
     46 H11A       11.4980   -0.7290    5.0570 ha        1 79N      0.114000
     47 H12        11.6430   -2.3620    5.2400 DU        1 79N      0.172000
     48 H12A       11.4850   -3.7000    4.4070 ha        1 79N      0.098000
     49 H13        12.4160   -2.4960    3.7730 DU        1 79N      0.184000
     50 H13A       13.6350   -2.9050    5.3330 ha        1 79N      0.072000
     51 H14        13.8170   -2.5610    3.7310 DU        1 79N      0.237000
     52 H14A       13.6470   -4.5630    3.4980 hc        1 79N      0.093000
     53 H16        16.6310   -3.8700    2.6600 ha        1 79N      0.241500
     54 H16A       17.9820   -3.0640    2.6090 ha        1 79N      0.241500
     55 H17        18.1740   -4.6910    2.7990 DU        1 79N      0.177000
     56 H18        18.9590   -5.5020    1.9750 DU        1 79N      0.207000
     57 H18A       20.1180   -4.2480    2.8210 ha        1 79N      0.161000
     58 HO2        18.7550   -4.9750    1.0230 DU        1 79N      0.315000
     59 O3         20.5520   -5.9140    1.1900 oh        1 79N     -0.298000
@<TRIPOS>BOND
     1    1    3 1   
     2    1   23 1   
     3    1   24 1   
     4    1   25 1   
     5    1   26 1   
     6    2   19 1   
     7    3    5 1   
     8    3   26 1   
     9    3   27 1   
    10    3   28 1   
    11    4   19 1   
    12    4   20 1   
    13    5    7 1   
    14    5   28 1   
    15    5   29 1   
    16    5   30 1   
    17    6   21 1   
    18    6   58 1   
    19    7    8 1   
    20    7   30 1   
    21    7   31 1   
    22    8    9 1   
    23    8   33 1   
    24    8   34 1   
    25    8   35 1   
    26    9   10 1   
    27    9   35 1   
    28    9   36 1   
    29    9   37 1   
    30   10   11 1   
    31   10   37 1   
    32   10   38 1   
    33   10   39 1   
    34   11   12 1   
    35   11   39 1   
    36   11   40 1   
    37   11   41 1   
    38   12   13 1   
    39   12   41 1   
    40   12   42 1   
    41   13   14 1   
    42   13   42 1   
    43   13   43 1   
    44   14   15 1   
    45   14   43 1   
    46   14   44 1   
    47   14   45 1   
    48   15   16 1   
    49   15   45 1   
    50   15   46 1   
    51   15   47 1   
    52   16   17 1   
    53   16   47 1   
    54   16   48 1   
    55   16   49 1   
    56   17   18 1   
    57   17   49 1   
    58   17   50 1   
    59   17   51 1   
    60   18   19 1   
    61   18   51 1   
    62   18   52 1   
    63   20   21 1   
    64   20   53 1   
    65   20   54 1   
    66   20   55 1   
    67   21   22 1   
    68   21   55 1   
    69   21   56 1   
    70   21   58 1   
    71   22   32 1   
    72   22   56 1   
    73   22   57 1   
    74   22   59 1   
    75   32   59 1   
    76   33   35 1   
@<TRIPOS>SUBSTRUCTURE
     1 79N         1 TEMP              0 ****  ****    0 ROOT
