@<TRIPOS>MOLECULE
79O
   30    33     1     0     0
SMALL
bcc


@<TRIPOS>ATOM
      1 CL1         0.9480    2.0870   -0.0690 cl        1 79O     -0.060400
      2 C9          2.1440    0.8860   -0.0320 ca        1 79O      0.056400
      3 C8          2.9080    0.7200    1.1310 ca        1 79O     -0.129000
      4 C7          3.9030   -0.2530    1.1760 ca        1 79O     -0.100000
      5 C6          4.1470   -1.0640    0.0660 ca        1 79O     -0.132000
      6 C5          3.3910   -0.9040   -1.0930 ca        1 79O     -0.097000
      7 C4          2.3860    0.0690   -1.1450 ca        1 79O     -0.149900
      8 C3          1.5810    0.2040   -2.3910 cc        1 79O      0.530500
      9 N2          0.2850   -0.1170   -2.3630 nd        1 79O     -0.559300
     10 C10        -0.3800    0.0300   -3.5620 cd        1 79O      0.172400
     11 C11        -1.7690   -0.2090   -3.9240 ca        1 79O     -0.100800
     12 C12        -2.9020   -0.6500   -3.2490 ca        1 79O     -0.026000
     13 C13        -4.0960   -0.7500   -3.9680 ca        1 79O     -0.056900
     14 BR1        -5.6470   -1.3400   -3.0980 br        1 79O     -0.078100
     15 C14        -4.1620   -0.4180   -5.3340 ca        1 79O     -0.072000
     16 C15        -3.0420    0.0260   -6.0320 ca        1 79O     -0.129000
     17 C16        -1.8550    0.1250   -5.3140 ca        1 79O      0.093100
     18 O2         -0.6230    0.5490   -5.8260 os        1 79O     -0.141200
     19 C1          0.2510    0.4790   -4.7370 cc        1 79O     -0.102100
     20 C2          1.6590    0.8280   -4.7780 c         1 79O      0.728700
     21 O1          2.3230    1.2320   -5.7430 o         1 79O     -0.596500
     22 N1          2.2800    0.6540   -3.5180 n         1 79O     -0.474400
     23 H8          2.7170    1.3580    2.0080 ha        1 79O      0.155000
     24 H7          4.4990   -0.3820    2.0930 ha        1 79O      0.144000
     25 H6          4.9330   -1.8330    0.1060 ha        1 79O      0.145000
     26 H5          3.5730   -1.5500   -1.9660 ha        1 79O      0.148000
     27 H1          3.2460    0.8830   -3.4330 hn        1 79O      0.344500
     28 H12        -2.8450   -0.9080   -2.1800 ha        1 79O      0.169000
     29 H14        -5.1200   -0.5080   -5.8710 ha        1 79O      0.154000
     30 H15        -3.0890    0.2870   -7.0980 ha        1 79O      0.163000
@<TRIPOS>BOND
     1    1    2 1   
     2    2    3 ar  
     3    2    7 ar  
     4    3    4 ar  
     5    3   23 1   
     6    4    5 ar  
     7    4   24 1   
     8    5    6 ar  
     9    5   25 1   
    10    6    7 ar  
    11    6   26 1   
    12    7    8 1   
    13    8    9 2   
    14    8   22 1   
    15    9   10 1   
    16   10   11 1   
    17   10   19 2   
    18   11   12 ar  
    19   11   17 ar  
    20   12   13 ar  
    21   12   28 1   
    22   13   14 1   
    23   13   15 ar  
    24   15   16 ar  
    25   15   29 1   
    26   16   17 ar  
    27   16   30 1   
    28   17   18 1   
    29   18   19 1   
    30   19   20 1   
    31   20   21 2   
    32   20   22 1   
    33   22   27 1   
@<TRIPOS>SUBSTRUCTURE
     1 79O         1 TEMP              0 ****  ****    0 ROOT
