@<TRIPOS>MOLECULE
79O
   30    33     1     0     0
SMALL
bcc


@<TRIPOS>ATOM
      1 CL1         2.4990    2.1430    1.9400 cl        1 79O     -0.060400
      2 C9          3.6880    1.6980    0.8150 ca        1 79O      0.056400
      3 C8          4.7850    2.5460    0.6140 ca        1 79O     -0.129000
      4 C7          5.7780    2.1910   -0.2960 ca        1 79O     -0.100000
      5 C6          5.6870    0.9950   -1.0080 ca        1 79O     -0.132000
      6 C5          4.5980    0.1480   -0.8120 ca        1 79O     -0.097000
      7 C4          3.5950    0.4980    0.0980 ca        1 79O     -0.149900
      8 C3          2.4320   -0.4170    0.2720 cc        1 79O      0.530500
      9 N2          1.2250   -0.0150   -0.1290 nd        1 79O     -0.559300
     10 C10         0.2090   -0.9270    0.0620 cd        1 79O      0.172400
     11 C11        -1.2140   -0.8580   -0.2350 ca        1 79O     -0.100800
     12 C12        -2.0580    0.0960   -0.7920 ca        1 79O     -0.026000
     13 C13        -3.4140   -0.2210   -0.9150 ca        1 79O     -0.056900
     14 BR1        -4.5880    1.0350   -1.6610 br        1 79O     -0.078100
     15 C14        -3.9200   -1.4620   -0.4890 ca        1 79O     -0.072000
     16 C15        -3.0960   -2.4340    0.0720 ca        1 79O     -0.129000
     17 C16        -1.7460   -2.1160    0.1920 ca        1 79O      0.093100
     18 O2         -0.7550   -2.9480    0.7270 os        1 79O     -0.141200
     19 C1          0.4200   -2.1970    0.6330 cc        1 79O     -0.102100
     20 C2          1.7290   -2.6440    1.0700 c         1 79O      0.728700
     21 O1          2.0390   -3.7300    1.5830 o         1 79O     -0.596500
     22 N1          2.7230   -1.6620    0.8440 n         1 79O     -0.474400
     23 H8          4.8590    3.4910    1.1740 ha        1 79O      0.155000
     24 H7          6.6370    2.8620   -0.4540 ha        1 79O      0.144000
     25 H6          6.4730    0.7190   -1.7280 ha        1 79O      0.145000
     26 H5          4.5190   -0.7910   -1.3810 ha        1 79O      0.148000
     27 H1          3.6570   -1.8630    1.1260 hn        1 79O      0.344500
     28 H12        -1.6560    1.0670   -1.1230 ha        1 79O      0.169000
     29 H14        -4.9960   -1.6790   -0.6000 ha        1 79O      0.154000
     30 H15        -3.4870   -3.4040    0.4060 ha        1 79O      0.163000
@<TRIPOS>BOND
     1    1    2 1   
     2    2    3 ar  
     3    2    7 ar  
     4    3    4 ar  
     5    3   23 1   
     6    4    5 ar  
     7    4   24 1   
     8    5    6 ar  
     9    5   25 1   
    10    6    7 ar  
    11    6   26 1   
    12    7    8 1   
    13    8    9 2   
    14    8   22 1   
    15    9   10 1   
    16   10   11 1   
    17   10   19 2   
    18   11   12 ar  
    19   11   17 ar  
    20   12   13 ar  
    21   12   28 1   
    22   13   14 1   
    23   13   15 ar  
    24   15   16 ar  
    25   15   29 1   
    26   16   17 ar  
    27   16   30 1   
    28   17   18 1   
    29   18   19 1   
    30   19   20 1   
    31   20   21 2   
    32   20   22 1   
    33   22   27 1   
@<TRIPOS>SUBSTRUCTURE
     1 79O         1 TEMP              0 ****  ****    0 ROOT
