@<TRIPOS>MOLECULE
79O
   30    25     1     0     0
SMALL
bcc


@<TRIPOS>ATOM
      1 CL1         2.0360    2.6310    1.3170 cl        1 79O      0.004000
      2 C9          2.5010    1.1280    2.0690 c2        1 79O     -0.045000
      3 C8          3.1900    1.1390    3.2720 c2        1 79O     -0.127000
      4 C7          3.5210   -0.0560    3.8920 c1        1 79O     -0.100000
      5 C6          3.1630   -1.2620    3.3090 c1        1 79O     -0.103000
      6 C5          2.4740   -1.2730    2.1070 c1        1 79O     -0.103000
      7 C4          2.1430   -0.0780    1.4860 c1        1 79O     -0.063000
      8 C3          1.3690   -0.0900    0.1870 c2        1 79O      0.156000
      9 N2         -0.0760   -0.0650    0.2080 n1        1 79O     -0.143000
     10 C10        -0.8220   -0.0490   -1.0400 c1        1 79O      0.019000
     11 C11        -2.1980   -0.0140   -1.3110 c1        1 79O     -0.090000
     12 C12        -3.3220    0.0190   -0.4700 c1        1 79O     -0.028000
     13 C13        -4.5970    0.0630   -1.0160 c1        1 79O     -0.197000
     14 BR1        -6.1210    0.2960    0.1130 br        1 79O      0.061000
     15 C14        -4.7620    0.0750   -2.3950 c2        1 79O     -0.072000
     16 C15        -3.6520    0.0430   -3.2270 c1        1 79O     -0.128000
     17 C16        -2.3610   -0.0020   -2.6750 c1        1 79O      0.048000
     18 O2         -1.0990   -0.0290   -3.2590 o         1 79O     -0.052000
     19 C1         -0.1540   -0.0580   -2.2400 c1        1 79O     -0.126000
     20 C2          1.3490   -0.0850   -2.2620 c1        1 79O      0.368000
     21 O1          1.9420   -0.0410   -3.3210 o         1 79O     -0.320000
     22 N1          2.0660   -0.0990   -1.0580 n3        1 79O     -0.309000
     23 H8          3.4430    1.9880    3.6820 ha        1 79O      0.155000
     24 H7          4.0070   -0.0480    4.7380 ha        1 79O      0.145000
     25 H6          3.3960   -2.1030    3.7460 ha        1 79O      0.151500
     26 H5          2.2220   -2.1220    1.6960 ha        1 79O      0.151500
     27 H1          2.9780   -0.0950   -1.0700 hn        1 79O      0.261000
     28 H12        -3.2060    0.0290    0.4990 ha        1 79O      0.168000
     29 H14        -5.6590    0.1060   -2.7790 ha        1 79O      0.154000
     30 H15        -3.7680    0.0520   -4.1960 ha        1 79O      0.163000
@<TRIPOS>BOND
     1    1    2 1   
     2    2    3 1   
     3    2    7 1   
     4    3    4 1   
     5    3   23 1   
     6    4   24 1   
     7    5    6 1   
     8    5   25 1   
     9    6   26 1   
    10    7    8 1   
    11    8    9 1   
    12    8   22 1   
    13   10   11 1   
    14   10   19 1   
    15   11   17 1   
    16   12   13 1   
    17   12   28 1   
    18   13   15 1   
    19   15   16 1   
    20   15   29 1   
    21   16   30 1   
    22   18   19 1   
    23   20   21 1   
    24   20   22 1   
    25   22   27 1   
@<TRIPOS>SUBSTRUCTURE
     1 79O         1 TEMP              0 ****  ****    0 ROOT
