@<TRIPOS>MOLECULE
79W
   26    27     1     0     0
SMALL
bcc


@<TRIPOS>ATOM
      1 OAH        -5.3170   -0.2860   -0.9200 o         1 79W     -0.521100
      2 CAG        -4.1300   -0.3160   -1.2510 c         1 79W      0.575500
      3 CAE        -3.0160   -0.2190   -0.2920 ca        1 79W     -0.196600
      4 CAD        -1.6970   -0.3040   -0.7530 ca        1 79W     -0.069000
      5 CAF        -3.2670   -0.0420    1.0740 ca        1 79W     -0.058000
      6 CAA        -2.2030    0.0530    1.9690 ca        1 79W     -0.137000
      7 CAB        -0.8900   -0.0310    1.5110 ca        1 79W     -0.082000
      8 CAC        -0.6270   -0.2100    0.1440 ca        1 79W     -0.093300
      9 CAI         0.7660   -0.3250   -0.3600 c3        1 79W     -0.198600
     10 CAJ         1.4590   -1.5720    0.1660 c3        1 79W     -0.163400
     11 CAK         2.9360   -1.2940    0.2710 c         1 79W      0.602100
     12 OAP         3.7900   -2.1590    0.4430 o         1 79W     -0.486100
     13 CAL         3.2230    0.1710    0.1490 c3        1 79W     -0.446600
     14 SAM         1.7770    1.0680   -0.0390 s6        1 79W      1.308000
     15 OAO         1.8520    1.8500   -1.1930 o         1 79W     -0.634300
     16 OAN         1.4660    1.6940    1.1690 o         1 79W     -0.634300
     17 HAD        -1.5050   -0.4440   -1.8280 ha        1 79W      0.137000
     18 HAF        -4.3100    0.0220    1.4260 ha        1 79W      0.160000
     19 HAA        -2.3980    0.2020    3.0420 ha        1 79W      0.147000
     20 HAB        -0.0540    0.0720    2.2230 ha        1 79W      0.153000
     21 HAI         0.7120   -0.4260   -1.4870 h1        1 79W      0.123700
     22 HAJ1        1.0690   -1.8520    1.1820 hc        1 79W      0.098700
     23 HAJ2        1.2810   -2.4500   -0.5080 hc        1 79W      0.098700
     24 HAL1        3.8010    0.4940    1.0590 h1        1 79W      0.157700
     25 HAL2        3.9310    0.3250   -0.7120 h1        1 79W      0.157700
     26 HAG        -3.8280   -0.4200   -2.3180 h4        1 79W      0.001200
@<TRIPOS>BOND
     1    1    2 2   
     2    2    3 1   
     3    2   26 1   
     4    3    4 ar  
     5    3    5 ar  
     6    4    8 ar  
     7    4   17 1   
     8    5    6 ar  
     9    5   18 1   
    10    6    7 ar  
    11    6   19 1   
    12    7    8 ar  
    13    7   20 1   
    14    8    9 1   
    15    9   10 1   
    16    9   14 1   
    17    9   21 1   
    18   10   11 1   
    19   10   22 1   
    20   10   23 1   
    21   11   12 2   
    22   11   13 1   
    23   13   14 1   
    24   13   24 1   
    25   13   25 1   
    26   14   15 2   
    27   14   16 2   
@<TRIPOS>SUBSTRUCTURE
     1 79W         1 TEMP              0 ****  ****    0 ROOT
