@<TRIPOS>MOLECULE
79W
   26    27     1     0     0
SMALL
bcc


@<TRIPOS>ATOM
      1 OAH         0.1140   -0.0520   -0.2760 o         1 79W     -0.521100
      2 CAG         1.3310    0.0170   -0.0920 c         1 79W      0.575500
      3 CAE         1.9530    0.0010    1.2440 ca        1 79W     -0.196600
      4 CAD         3.3480    0.0420    1.3580 ca        1 79W     -0.069000
      5 CAF         1.1610   -0.0550    2.3960 ca        1 79W     -0.058000
      6 CAA         1.7630   -0.0640    3.6530 ca        1 79W     -0.137000
      7 CAB         3.1510   -0.0240    3.7670 ca        1 79W     -0.082000
      8 CAC         3.9540    0.0300    2.6190 ca        1 79W     -0.093300
      9 CAI         5.4370    0.0510    2.7200 c3        1 79W     -0.198600
     10 CAJ         5.9830   -1.2370    3.3150 c3        1 79W     -0.163400
     11 CAK         7.2590   -0.9240    4.0530 c         1 79W      0.602100
     12 OAP         8.0550   -1.7720    4.4440 o         1 79W     -0.486100
     13 CAL         7.4220    0.5510    4.2530 c3        1 79W     -0.446600
     14 SAM         6.0900    1.4110    3.6080 s6        1 79W      1.308000
     15 OAO         6.5400    2.3720    2.7000 o         1 79W     -0.634300
     16 OAN         5.2610    1.8230    4.6520 o         1 79W     -0.634300
     17 HAD         3.9670    0.0840    0.4480 ha        1 79W      0.137000
     18 HAF         0.0630   -0.0870    2.2940 ha        1 79W      0.160000
     19 HAA         1.1420   -0.0980    4.5610 ha        1 79W      0.147000
     20 HAB         3.6170   -0.0040    4.7660 ha        1 79W      0.153000
     21 HAI         5.8480    0.1310    1.6680 h1        1 79W      0.123700
     22 HAJ1        6.1790   -2.0010    2.5190 hc        1 79W      0.098700
     23 HAJ2        5.2500   -1.6920    4.0350 hc        1 79W      0.098700
     24 HAL1        7.5520    0.7460    5.3540 h1        1 79W      0.157700
     25 HAL2        8.3960    0.8690    3.7870 h1        1 79W      0.157700
     26 HAG         2.0440    0.0970   -0.9440 h4        1 79W      0.001200
@<TRIPOS>BOND
     1    1    2 2   
     2    2    3 1   
     3    2   26 1   
     4    3    4 ar  
     5    3    5 ar  
     6    4    8 ar  
     7    4   17 1   
     8    5    6 ar  
     9    5   18 1   
    10    6    7 ar  
    11    6   19 1   
    12    7    8 ar  
    13    7   20 1   
    14    8    9 1   
    15    9   10 1   
    16    9   14 1   
    17    9   21 1   
    18   10   11 1   
    19   10   22 1   
    20   10   23 1   
    21   11   12 2   
    22   11   13 1   
    23   13   14 1   
    24   13   24 1   
    25   13   25 1   
    26   14   15 2   
    27   14   16 2   
@<TRIPOS>SUBSTRUCTURE
     1 79W         1 TEMP              0 ****  ****    0 ROOT
