@<TRIPOS>MOLECULE
79W
   26    24     1     0     0
SMALL
bcc


@<TRIPOS>ATOM
      1 OAH        -4.2940   -0.0370   -2.8250 o         1 79W     -0.282000
      2 CAG        -3.0770   -0.0370   -2.8250 c1        1 79W      0.223000
      3 CAE        -2.3210   -0.0370   -1.5150 c1        1 79W     -0.176000
      4 CAD        -0.9350   -0.0590   -1.5150 c2        1 79W     -0.069000
      5 CAF        -3.0140   -0.0350   -0.3150 c1        1 79W     -0.058000
      6 CAA        -2.3220   -0.0560    0.8850 c1        1 79W     -0.109500
      7 CAB        -0.9360   -0.0790    0.8850 c1        1 79W     -0.109500
      8 CAC        -0.2430   -0.0800   -0.3150 c1        1 79W     -0.086000
      9 CAI         1.2130   -0.1270   -0.3160 c3        1 79W     -0.706000
     10 CAJ         1.5380   -1.1640    0.5710 c3        1 79W     -0.192000
     11 CAK         3.0720   -0.6360    1.0950 c2        1 79W      0.263000
     12 OAP         4.0400   -1.3420    1.2950 o         1 79W     -0.247000
     13 CAL         2.8010    0.5730    1.7180 c3        1 79W     -0.936000
     14 SAM         1.7030    1.2910    0.5720 s6        1 79W      2.788000
     15 OAO         2.3480    2.2630   -0.2660 o         1 79W     -0.913500
     16 OAN         0.5800    1.8840    1.2440 o         1 79W     -0.913500
     17 HAD        -0.4470   -0.0600   -2.3610 ha        1 79W      0.137000
     18 HAF        -3.9900   -0.0190   -0.3150 ha        1 79W      0.160000
     19 HAA        -2.8100   -0.0550    1.7300 ha        1 79W      0.150000
     20 HAB        -0.4480   -0.0940    1.7310 ha        1 79W      0.150000
     21 HAI         1.4440   -0.2080   -1.2610 h1        1 79W      0.163000
     22 HAJ1        0.9380   -1.4520    1.2840 hc        1 79W      0.138000
     23 HAJ2        1.6050   -1.9820    0.0410 hc        1 79W      0.138000
     24 HAL1        2.5730    0.4320    2.6570 h1        1 79W      0.197000
     25 HAL2        3.5720    1.1680    1.7920 h1        1 79W      0.197000
     26 HAG        -2.5890   -0.0520   -3.6700 ha        1 79W      0.094000
@<TRIPOS>BOND
     1    1    2 1   
     2    2   26 1   
     3    3    4 1   
     4    3    5 1   
     5    4    8 1   
     6    4   17 1   
     7    5   18 1   
     8    6    7 1   
     9    6   19 1   
    10    7   20 1   
    11    8    9 1   
    12    9   10 1   
    13    9   14 1   
    14    9   21 1   
    15   10   11 1   
    16   10   22 1   
    17   10   23 1   
    18   11   12 1   
    19   11   13 1   
    20   13   14 1   
    21   13   24 1   
    22   13   25 1   
    23   14   15 1   
    24   14   16 1   
@<TRIPOS>SUBSTRUCTURE
     1 79W         1 TEMP              0 ****  ****    0 ROOT
