@<TRIPOS>MOLECULE
79X
   35    38     1     0     0
SMALL
bcc


@<TRIPOS>ATOM
      1 C1          4.1400   -1.4220   -0.0650 ca        1 79X     -0.110000
      2 N1          1.1600    0.6060   -0.0420 n         1 79X     -0.287200
      3 O1          6.4500   -0.9510   -0.0920 oh        1 79X     -0.500100
      4 C2          2.8270   -0.9730   -0.0520 ca        1 79X     -0.078800
      5 O2          0.3770    2.8300   -0.0440 o         1 79X     -0.567500
      6 C3          2.5490    0.4520   -0.0560 ca        1 79X      0.025600
      7 O3         -4.3690   -1.7280    0.0310 os        1 79X     -0.297900
      8 C4          3.5820    1.3920   -0.0720 ca        1 79X     -0.099000
      9 O4         -4.8220    0.8170    0.0240 os        1 79X     -0.300900
     10 C5          4.8900    0.9210   -0.0840 ca        1 79X     -0.182000
     11 C6          5.1600   -0.4610   -0.0810 ca        1 79X      0.097100
     12 C7          1.5490   -1.6750   -0.0350 cc        1 79X     -0.108200
     13 C8          0.5640   -0.7130   -0.0280 cd        1 79X      0.014400
     14 C10         0.1660    1.6170   -0.0350 c         1 79X      0.752100
     15 C11        -1.1390    0.8750   -0.0170 ca        1 79X     -0.165600
     16 C12        -0.8850   -0.5310   -0.0130 ca        1 79X     -0.006800
     17 C13        -1.9270   -1.4390    0.0030 ca        1 79X     -0.156000
     18 C14        -3.2410   -0.9380    0.0150 ca        1 79X      0.128100
     19 C15        -3.4900    0.4600    0.0110 ca        1 79X      0.087100
     20 C16        -2.4260    1.3770   -0.0050 ca        1 79X     -0.098000
     21 C21        -4.1520   -3.1360    0.0360 c3        1 79X      0.107700
     22 C23        -5.0940    2.2150    0.0200 c3        1 79X      0.107700
     23 H1          4.3860   -2.4930   -0.0620 ha        1 79X      0.156000
     24 HO1         7.0550   -0.1960   -0.1030 ho        1 79X      0.418000
     25 H4          3.3660    2.4700   -0.0750 ha        1 79X      0.157000
     26 H5          5.7250    1.6380   -0.0970 ha        1 79X      0.137000
     27 H7          1.4280   -2.7550   -0.0280 ha        1 79X      0.164000
     28 H13        -1.7320   -2.5200    0.0060 ha        1 79X      0.154000
     29 H16        -2.6020    2.4630   -0.0090 ha        1 79X      0.163000
     30 H21        -3.6110   -3.4560   -0.8880 h1        1 79X      0.048700
     31 H21A       -3.5900   -3.4470    0.9500 h1        1 79X      0.048700
     32 H21B       -5.1910   -3.5540    0.0490 h1        1 79X      0.048700
     33 H23        -4.6720    2.7030    0.9320 h1        1 79X      0.048033
     34 H23A       -4.6920    2.6930   -0.9050 h1        1 79X      0.048033
     35 H23B       -6.2130    2.2560    0.0320 h1        1 79X      0.048033
@<TRIPOS>BOND
     1    1    4 ar  
     2    1   11 ar  
     3    1   23 1   
     4    2    6 1   
     5    2   13 1   
     6    2   14 1   
     7    3   11 1   
     8    3   24 1   
     9    4    6 ar  
    10    4   12 1   
    11    5   14 2   
    12    6    8 ar  
    13    7   18 1   
    14    7   21 1   
    15    8   10 ar  
    16    8   25 1   
    17    9   19 1   
    18    9   22 1   
    19   10   11 ar  
    20   10   26 1   
    21   12   13 2   
    22   12   27 1   
    23   13   16 1   
    24   14   15 1   
    25   15   16 ar  
    26   15   20 ar  
    27   16   17 ar  
    28   17   18 ar  
    29   17   28 1   
    30   18   19 ar  
    31   19   20 ar  
    32   20   29 1   
    33   21   30 1   
    34   21   31 1   
    35   21   32 1   
    36   22   33 1   
    37   22   34 1   
    38   22   35 1   
@<TRIPOS>SUBSTRUCTURE
     1 79X         1 TEMP              0 ****  ****    0 ROOT
