@<TRIPOS>MOLECULE
79X
   35    31     1     0     0
SMALL
bcc


@<TRIPOS>ATOM
      1 C1         -4.6520    0.1540    0.2940 c1        1 79X     -0.169000
      2 N1         -1.2140    0.2080    1.2290 n2        1 79X     -0.223000
      3 O1         -6.7300    0.0510    1.6070 oh        1 79X     -0.253000
      4 C2         -3.2770    0.2070    0.3010 c1        1 79X     -0.064000
      5 O2          0.3140    0.4010    3.0110 o         1 79X     -0.290000
      6 C3         -2.5900    0.2280    1.5090 c1        1 79X      0.034000
      7 O3          3.3330    0.3950   -2.7360 os        1 79X     -0.181000
      8 C4         -3.2770    0.1950    2.6900 c1        1 79X     -0.103000
      9 O4          4.5320    0.5080   -0.5370 os        1 79X     -0.184000
     10 C5         -4.6560    0.1410    2.6870 c1        1 79X     -0.127000
     11 C6         -5.3460    0.1200    1.4890 c1        1 79X      0.055000
     12 C7         -2.3350    0.1740   -0.7290 c1        1 79X     -0.123000
     13 C8         -1.0570    0.1740   -0.1450 c2        1 79X     -0.001000
     14 C10         0.0750    0.2660    1.8170 c1        1 79X      0.389000
     15 C11         1.0680    0.2840    0.7280 c2        1 79X     -0.145000
     16 C12         0.3940    0.2240   -0.4480 c2        1 79X      0.005000
     17 C13         1.1050    0.1200   -1.6700 c1        1 79X     -0.156000
     18 C14         2.5000    0.0790   -1.6650 c1        1 79X      0.083000
     19 C15         3.1950    0.1400   -0.4630 c2        1 79X      0.042000
     20 C16         2.5070    0.2420    0.7300 c2        1 79X     -0.098000
     21 C21         3.2100   -0.4860   -3.8320 c3        1 79X     -0.082000
     22 C23         5.4150   -0.3430    0.2150 c3        1 79X     -0.082000
     23 H1         -5.1100    0.0560   -0.5140 ha        1 79X      0.139000
     24 HO1        -7.0380   -0.6410    1.1240 ho        1 79X      0.216000
     25 H4         -2.8010    0.2090    3.5230 ha        1 79X      0.159000
     26 H5         -5.1310    0.1180    3.5070 ha        1 79X      0.154000
     27 H7         -2.5210    0.0390   -1.6380 DU        1 79X      0.162000
     28 H13         0.6180    0.1280   -2.5240 ha        1 79X      0.153000
     29 H16         2.9890    0.2130    1.5700 ha        1 79X      0.163000
     30 H21         2.4770   -0.1980   -4.3970 h1        1 79X      0.088000
     31 H21A        3.0340   -1.3790   -3.5070 h1        1 79X      0.088000
     32 H21B        4.0770   -0.4830   -4.3710 h1        1 79X      0.088000
     33 H23         5.0300   -1.1590    0.3260 h1        1 79X      0.087333
     34 H23A        6.2730   -0.4450   -0.2750 h1        1 79X      0.087333
     35 H23B        5.5870    0.0590    1.0950 h1        1 79X      0.087333
@<TRIPOS>BOND
     1    1    4 1   
     2    1   23 1   
     3    2    6 1   
     4    2   13 1   
     5    3   11 1   
     6    3   24 1   
     7    5   14 1   
     8    6    8 1   
     9    7   18 1   
    10    7   21 1   
    11    8   25 1   
    12    9   19 1   
    13    9   22 1   
    14   10   11 1   
    15   10   26 1   
    16   12   13 1   
    17   13   16 1   
    18   14   15 1   
    19   15   16 1   
    20   15   20 1   
    21   16   17 1   
    22   17   28 1   
    23   18   19 1   
    24   19   20 1   
    25   20   29 1   
    26   21   30 1   
    27   21   31 1   
    28   21   32 1   
    29   22   33 1   
    30   22   34 1   
    31   22   35 1   
@<TRIPOS>SUBSTRUCTURE
     1 79X         1 TEMP              0 ****  ****    0 ROOT
