@<TRIPOS>MOLECULE
79X
   35    38     1     0     0
SMALL
bcc


@<TRIPOS>ATOM
      1 C1         -0.0310   -0.0700   -0.0960 ca        1 79X     -0.110000
      2 N1          3.4160   -0.0460    0.9570 n         1 79X     -0.287200
      3 O1         -2.0970   -0.1020    1.0380 oh        1 79X     -0.500100
      4 C2          1.3560   -0.0570   -0.0560 ca        1 79X     -0.078800
      5 O2          4.8240   -0.0510    2.8490 o         1 79X     -0.567500
      6 C3          2.0450   -0.0630    1.2210 ca        1 79X      0.025600
      7 O3          8.0050    0.0360   -2.9120 os        1 79X     -0.297900
      8 C4          1.3360   -0.0820    2.4260 ca        1 79X     -0.099000
      9 O4          9.1920    0.0250   -0.6150 os        1 79X     -0.300900
     10 C5         -0.0520   -0.0950    2.3640 ca        1 79X     -0.182000
     11 C6         -0.7200   -0.0890    1.1240 ca        1 79X      0.097100
     12 C7          2.3690   -0.0370   -1.1060 cc        1 79X     -0.108200
     13 C8          3.5950   -0.0310   -0.4790 cd        1 79X      0.014400
     14 C10         4.6650   -0.0410    1.6280 c         1 79X      0.752100
     15 C11         5.6920   -0.0200    0.5320 ca        1 79X     -0.165600
     16 C12         5.0330   -0.0140   -0.7350 ca        1 79X     -0.006800
     17 C13         5.7590    0.0050   -1.9110 ca        1 79X     -0.156000
     18 C14         7.1620    0.0170   -1.8230 ca        1 79X      0.128100
     19 C15         7.8140    0.0110   -0.5610 ca        1 79X      0.087100
     20 C16         7.0690   -0.0080    0.6300 ca        1 79X     -0.098000
     21 C21         7.3800    0.0430   -4.1910 c3        1 79X      0.107700
     22 C23         9.8660    0.0190    0.6390 c3        1 79X      0.107700
     23 H1         -0.5830   -0.0670   -1.0460 ha        1 79X      0.156000
     24 HO1        -2.4510   -0.1150    1.9390 ho        1 79X      0.418000
     25 H4          1.8630   -0.0860    3.3910 ha        1 79X      0.157000
     26 H5         -0.6370   -0.1100    3.2960 ha        1 79X      0.137000
     27 H7          2.1640   -0.0280   -2.1730 ha        1 79X      0.164000
     28 H13         5.2520    0.0090   -2.8860 ha        1 79X      0.154000
     29 H16         7.5590   -0.0130    1.6150 ha        1 79X      0.163000
     30 H21         8.2490    0.0580   -4.8980 h1        1 79X      0.048700
     31 H21A        6.7510    0.9570   -4.3200 h1        1 79X      0.048700
     32 H21B        6.7690   -0.8810   -4.3380 h1        1 79X      0.048700
     33 H23         9.6070    0.9300    1.2320 h1        1 79X      0.048033
     34 H23A        9.6250   -0.9070    1.2140 h1        1 79X      0.048033
     35 H23B       10.9480    0.0330    0.3470 h1        1 79X      0.048033
@<TRIPOS>BOND
     1    1    4 ar  
     2    1   11 ar  
     3    1   23 1   
     4    2    6 1   
     5    2   13 1   
     6    2   14 1   
     7    3   11 1   
     8    3   24 1   
     9    4    6 ar  
    10    4   12 1   
    11    5   14 2   
    12    6    8 ar  
    13    7   18 1   
    14    7   21 1   
    15    8   10 ar  
    16    8   25 1   
    17    9   19 1   
    18    9   22 1   
    19   10   11 ar  
    20   10   26 1   
    21   12   13 2   
    22   12   27 1   
    23   13   16 1   
    24   14   15 1   
    25   15   16 ar  
    26   15   20 ar  
    27   16   17 ar  
    28   17   18 ar  
    29   17   28 1   
    30   18   19 ar  
    31   19   20 ar  
    32   20   29 1   
    33   21   30 1   
    34   21   31 1   
    35   21   32 1   
    36   22   33 1   
    37   22   34 1   
    38   22   35 1   
@<TRIPOS>SUBSTRUCTURE
     1 79X         1 TEMP              0 ****  ****    0 ROOT
