@<TRIPOS>MOLECULE
79Z
   55    58     1     0     0
SMALL
bcc


@<TRIPOS>ATOM
      1 C1          0.1920   -0.3120    1.0270 cx        1 79Z     -0.109400
      2 C2          1.4620   -0.2520    0.2060 cx        1 79Z     -0.123400
      3 C3          1.4580    0.1700    1.6590 cx        1 79Z     -0.109400
      4 C4          3.8500   -7.3030   -0.4170 ca        1 79Z     -0.160800
      5 C5          3.0620   -8.3540    0.0830 ca        1 79Z     -0.037000
      6 C6          3.4780   -9.6710   -0.0500 ca        1 79Z     -0.179000
      7 C7          4.7000   -9.9570   -0.6950 ca        1 79Z      0.201900
      8 C8          5.4890   -8.9090   -1.2140 ca        1 79Z     -0.179000
      9 C9          5.0580   -7.5980   -1.0820 ca        1 79Z     -0.037000
     10 C10         2.1640   -1.4730   -0.2170 ca        1 79Z      0.021700
     11 C11         2.9730   -1.4850   -1.3970 ca        1 79Z      0.172600
     12 C12         3.5460   -2.6960   -1.8510 ca        1 79Z     -0.094000
     13 C13         2.0290   -2.6350    0.5580 ca        1 79Z     -0.141000
     14 C14         2.6470   -3.8150    0.1680 ca        1 79Z     -0.081800
     15 C15         3.3580   -3.8170   -1.0640 ca        1 79Z      0.051100
     16 O16         3.8360   -5.1080   -1.3490 os        1 79Z     -0.164200
     17 C17         3.4310   -5.9300   -0.3020 cc        1 79Z      0.315900
     18 C18         2.7380   -5.1820    0.6710 cd        1 79Z     -0.311400
     19 C19         2.2770   -5.6600    1.9340 c         1 79Z      0.615300
     20 O20         1.9010   -6.7690    2.2960 o         1 79Z     -0.458100
     21 N21         2.3030   -4.6200    3.0600 ny        1 79Z     -0.675800
     22 C22         0.9570   -4.3960    3.6280 c3        1 79Z      0.080100
     23 N23         3.2390   -0.3130   -2.1390 nh        1 79Z     -0.693900
     24 S24         4.3300    0.8330   -1.6540 s6        1 79Z      1.465900
     25 O25         3.8770    2.0900   -2.0960 o         1 79Z     -0.640300
     26 O26         4.6290    0.6780   -0.2900 o         1 79Z     -0.640300
     27 C27         5.7110    0.4270   -2.5510 c3        1 79Z     -0.372300
     28 F28         5.1110  -11.2330   -0.8200 f         1 79Z     -0.104900
     29 C29         2.4960   -0.1190   -3.3630 c3        1 79Z      0.180800
     30 C30         1.1110    0.5330   -3.2150 c3        1 79Z      0.113400
     31 O31         1.1160    1.6870   -2.4080 oh        1 79Z     -0.605800
     32 H11        -0.6040    0.4190    0.7890 hc        1 79Z      0.077200
     33 H21        -0.2320   -1.2880    1.3170 hc        1 79Z      0.077200
     34 H2          1.4940    0.5720   -0.5460 hc        1 79Z      0.132700
     35 H13         1.5800    1.2450    1.8890 hc        1 79Z      0.077200
     36 H23         1.9730   -0.4680    2.3990 hc        1 79Z      0.077200
     37 H5          2.0940   -8.1440    0.5690 ha        1 79Z      0.161000
     38 H6          2.8610  -10.4970    0.3380 ha        1 79Z      0.174500
     39 H8          6.4370   -9.1430   -1.7240 ha        1 79Z      0.174500
     40 H9          5.6660   -6.7770   -1.4980 ha        1 79Z      0.161000
     41 H12         4.1200   -2.7540   -2.7890 ha        1 79Z      0.173000
     42 H13A        1.3940   -2.5920    1.4550 ha        1 79Z      0.125000
     43 HN21        2.6910   -3.7370    2.7040 hn        1 79Z      0.462300
     44 H122        1.0290   -3.6890    4.4980 hx        1 79Z      0.109700
     45 H222        0.5330   -5.3800    3.9730 hx        1 79Z      0.109700
     46 H322        0.2850   -3.9590    2.8420 hx        1 79Z      0.109700
     47 H127        6.5580    1.1140   -2.2870 h1        1 79Z      0.122367
     48 H227        6.0890   -0.6070   -2.3650 h1        1 79Z      0.122367
     49 H327        5.5770    0.5260   -3.6560 h1        1 79Z      0.122367
     50 H129        3.1250    0.5420   -4.0320 h1        1 79Z      0.060700
     51 H229        2.3570   -1.1090   -3.8840 h1        1 79Z      0.060700
     52 H130        0.7340    0.7740   -4.2460 h1        1 79Z      0.058200
     53 H230        0.3920   -0.1650   -2.7070 h1        1 79Z      0.058200
     54 HO31        1.7660    2.3100   -2.7660 ho        1 79Z      0.434000
     55 H212        2.9230   -4.9750    3.7970 hn        1 79Z      0.462300
@<TRIPOS>BOND
     1    1    2 1   
     2    1    3 1   
     3    1   32 1   
     4    1   33 1   
     5    2    3 1   
     6    2   10 1   
     7    2   34 1   
     8    3   35 1   
     9    3   36 1   
    10    4    5 ar  
    11    4    9 ar  
    12    4   17 1   
    13    5    6 ar  
    14    5   37 1   
    15    6    7 ar  
    16    6   38 1   
    17    7    8 ar  
    18    7   28 1   
    19    8    9 ar  
    20    8   39 1   
    21    9   40 1   
    22   10   11 ar  
    23   10   13 ar  
    24   11   12 ar  
    25   11   23 1   
    26   12   15 ar  
    27   12   41 1   
    28   13   14 ar  
    29   13   42 1   
    30   14   15 ar  
    31   14   18 1   
    32   15   16 1   
    33   16   17 1   
    34   17   18 2   
    35   18   19 1   
    36   19   20 2   
    37   19   21 1   
    38   21   22 1   
    39   21   43 1   
    40   21   55 1   
    41   22   44 1   
    42   22   45 1   
    43   22   46 1   
    44   23   24 1   
    45   23   29 1   
    46   24   25 2   
    47   24   26 2   
    48   24   27 1   
    49   27   47 1   
    50   27   48 1   
    51   27   49 1   
    52   29   30 1   
    53   29   50 1   
    54   29   51 1   
    55   30   31 1   
    56   30   52 1   
    57   30   53 1   
    58   31   54 1   
@<TRIPOS>SUBSTRUCTURE
     1 79Z         1 TEMP              0 ****  ****    0 ROOT
