@<TRIPOS>MOLECULE
79Z
   54    57     1     0     0
SMALL
bcc


@<TRIPOS>ATOM
      1 C1          2.9560   -3.2760    0.3490 cx        1 79Z     -0.120400
      2 C2          3.0450   -1.8350   -0.0990 cx        1 79Z     -0.104400
      3 C3          2.9960   -2.9560   -1.1120 cx        1 79Z     -0.120400
      4 C4         -3.8460    0.9780    0.4540 ca        1 79Z     -0.091800
      5 C5         -4.8950    0.1810    0.9360 ca        1 79Z     -0.063000
      6 C6         -6.1850    0.6930    1.0190 ca        1 79Z     -0.178000
      7 C7         -6.4360    2.0200    0.6220 ca        1 79Z      0.150900
      8 C8         -5.3850    2.8290    0.1480 ca        1 79Z     -0.178000
      9 C9         -4.1020    2.3050    0.0710 ca        1 79Z     -0.063000
     10 C10         1.9000   -0.9240    0.0650 ca        1 79Z     -0.038300
     11 C11         2.0960    0.4640    0.3390 ca        1 79Z      0.140600
     12 C12         0.9850    1.3190    0.5310 ca        1 79Z     -0.122000
     13 C13         0.6030   -1.4430   -0.0560 ca        1 79Z     -0.098000
     14 C14        -0.4970   -0.6130    0.1070 ca        1 79Z     -0.076800
     15 C15        -0.2750    0.7620    0.4090 ca        1 79Z      0.055100
     16 O16        -1.4920    1.4290    0.5590 os        1 79Z     -0.198200
     17 C17        -2.5000    0.4570    0.3590 cc        1 79Z      0.186900
     18 C18        -1.9420   -0.7790    0.0750 cd        1 79Z     -0.196400
     19 C19        -2.6230   -2.0530   -0.2190 c         1 79Z      0.705300
     20 O20        -3.5500   -2.5050    0.4850 o         1 79Z     -0.613100
     21 N21        -2.1580   -2.7480   -1.3170 n         1 79Z     -0.569900
     22 C22        -2.7360   -3.9770   -1.7580 c3        1 79Z      0.078300
     23 N23         3.3870    1.0370    0.4540 nh        1 79Z     -0.693900
     24 S24         4.3080    1.4680   -0.8400 s6        1 79Z      1.471900
     25 O25         5.1910    2.5000   -0.4690 o         1 79Z     -0.647800
     26 O26         4.8820    0.3540   -1.4720 o         1 79Z     -0.647800
     27 C27         3.1580    2.1220   -1.9160 c3        1 79Z     -0.362300
     28 F28        -7.6900    2.5220    0.6990 f         1 79Z     -0.134900
     29 C29         3.8680    1.2370    1.8010 c3        1 79Z      0.216800
     30 C30         4.3440   -0.0350    2.5170 c3        1 79Z      0.104400
     31 O31         5.5680   -0.4190    1.9130 oh        1 79Z     -0.601800
     32 H11         3.8450   -3.7280    0.8260 hc        1 79Z      0.074450
     33 H21         2.0180   -3.6480    0.7980 hc        1 79Z      0.074450
     34 H2          4.0390   -1.3480    0.0320 hc        1 79Z      0.118700
     35 H13         3.9130   -3.1700   -1.6900 hc        1 79Z      0.074450
     36 H23         2.0840   -3.0950   -1.7190 hc        1 79Z      0.074450
     37 H5         -4.6990   -0.8600    1.2540 ha        1 79Z      0.167500
     38 H6         -7.0100    0.0700    1.3930 ha        1 79Z      0.156000
     39 H8         -5.5900    3.8660   -0.1550 ha        1 79Z      0.156000
     40 H9         -3.2740    2.9350   -0.2920 ha        1 79Z      0.167500
     41 H12         1.1090    2.3840    0.7770 ha        1 79Z      0.159000
     42 H13A        0.4600   -2.5150   -0.2660 ha        1 79Z      0.151000
     43 HN21       -1.4500   -2.3390   -1.8790 hn        1 79Z      0.315500
     44 H122       -3.4820   -4.3470   -1.0040 h1        1 79Z      0.046367
     45 H222       -3.2560   -3.8330   -2.7440 h1        1 79Z      0.046367
     46 H322       -1.9310   -4.7490   -1.8860 h1        1 79Z      0.046367
     47 H127        2.3270    2.6890   -1.4310 h1        1 79Z      0.116700
     48 H227        3.6560    2.8430   -2.6140 h1        1 79Z      0.116700
     49 H327        2.6790    1.3420   -2.5570 h1        1 79Z      0.116700
     50 H129        4.7320    1.9660    1.7620 h1        1 79Z      0.075200
     51 H229        3.0460    1.6880    2.4270 h1        1 79Z      0.075200
     52 H130        4.5140    0.2050    3.6010 h1        1 79Z      0.037700
     53 H230        3.5870   -0.8590    2.4300 h1        1 79Z      0.037700
     54 HO31        5.8020   -1.2810    2.2740 ho        1 79Z      0.407000
@<TRIPOS>BOND
     1    1    2 1   
     2    1    3 1   
     3    1   32 1   
     4    1   33 1   
     5    2    3 1   
     6    2   10 1   
     7    2   34 1   
     8    3   35 1   
     9    3   36 1   
    10    4    5 ar  
    11    4    9 ar  
    12    4   17 1   
    13    5    6 ar  
    14    5   37 1   
    15    6    7 ar  
    16    6   38 1   
    17    7    8 ar  
    18    7   28 1   
    19    8    9 ar  
    20    8   39 1   
    21    9   40 1   
    22   10   11 ar  
    23   10   13 ar  
    24   11   12 ar  
    25   11   23 1   
    26   12   15 ar  
    27   12   41 1   
    28   13   14 ar  
    29   13   42 1   
    30   14   15 ar  
    31   14   18 1   
    32   15   16 1   
    33   16   17 1   
    34   17   18 2   
    35   18   19 1   
    36   19   20 2   
    37   19   21 1   
    38   21   22 1   
    39   21   43 1   
    40   22   44 1   
    41   22   45 1   
    42   22   46 1   
    43   23   24 1   
    44   23   29 1   
    45   24   25 2   
    46   24   26 2   
    47   24   27 1   
    48   27   47 1   
    49   27   48 1   
    50   27   49 1   
    51   29   30 1   
    52   29   50 1   
    53   29   51 1   
    54   30   31 1   
    55   30   52 1   
    56   30   53 1   
    57   31   54 1   
@<TRIPOS>SUBSTRUCTURE
     1 79Z         1 TEMP              0 ****  ****    0 ROOT
