@<TRIPOS>MOLECULE
79Z
   54    57     1     0     0
SMALL
bcc


@<TRIPOS>ATOM
      1 C1          0.0760   -0.1740    0.7390 cx        1 79Z     -0.118900
      2 C2          1.4640   -0.1270    0.1390 cx        1 79Z     -0.099400
      3 C3          1.2480    0.1600    1.6080 cx        1 79Z     -0.118900
      4 C4          3.8220   -7.1880   -0.3980 ca        1 79Z     -0.091800
      5 C5          3.0080   -8.2390    0.0490 ca        1 79Z     -0.063000
      6 C6          3.4550   -9.5540   -0.0250 ca        1 79Z     -0.178500
      7 C7          4.7280   -9.8300   -0.5580 ca        1 79Z      0.150900
      8 C8          5.5460   -8.7800   -1.0190 ca        1 79Z     -0.178500
      9 C9          5.0880   -7.4720   -0.9400 ca        1 79Z     -0.063000
     10 C10         2.1320   -1.3640   -0.2980 ca        1 79Z     -0.018300
     11 C11         2.9580   -1.3840   -1.4620 ca        1 79Z      0.137600
     12 C12         3.5690   -2.5860   -1.8880 ca        1 79Z     -0.125000
     13 C13         1.9430   -2.5340    0.4530 ca        1 79Z     -0.098000
     14 C14         2.5540   -3.7170    0.0610 ca        1 79Z     -0.072800
     15 C15         3.3550   -3.7140   -1.1180 ca        1 79Z      0.054100
     16 O16         3.8660   -4.9910   -1.3620 os        1 79Z     -0.199200
     17 C17         3.3720   -5.8160   -0.3230 cc        1 79Z      0.186900
     18 C18         2.5900   -5.0850    0.5550 cd        1 79Z     -0.195400
     19 C19         1.9050   -5.5410    1.7790 c         1 79Z      0.705300
     20 O20         1.1950   -6.5670    1.8170 o         1 79Z     -0.614100
     21 N21         2.0740   -4.7480    2.8970 n         1 79Z     -0.569900
     22 C22         1.5080   -5.0710    4.1670 c3        1 79Z      0.078300
     23 N23         3.1890   -0.2230   -2.2420 nh        1 79Z     -0.692900
     24 S24         4.3720    0.8620   -1.9050 s6        1 79Z      1.464900
     25 O25         4.1940    1.9900   -2.7420 o         1 79Z     -0.649300
     26 O26         4.5000    1.1110   -0.5300 o         1 79Z     -0.649300
     27 C27         5.7820    0.0570   -2.4200 c3        1 79Z     -0.365300
     28 F28         5.1680  -11.1070   -0.6320 f         1 79Z     -0.134900
     29 C29         2.3240   -0.0250   -3.3810 c3        1 79Z      0.185800
     30 C30         1.0830    0.8420   -3.1240 c3        1 79Z      0.109400
     31 O31         1.3880    2.0800   -2.5230 oh        1 79Z     -0.608800
     32 H11        -0.4260   -1.1500    0.8610 hc        1 79Z      0.075200
     33 H21        -0.6350    0.6240    0.4610 hc        1 79Z      0.075200
     34 H2          1.6880    0.7600   -0.4940 hc        1 79Z      0.109700
     35 H13         1.3870    1.2000    1.9560 hc        1 79Z      0.075200
     36 H23         1.5930   -0.5720    2.3590 hc        1 79Z      0.075200
     37 H5          2.0060   -8.0250    0.4640 ha        1 79Z      0.168000
     38 H6          2.8200  -10.3800    0.3280 ha        1 79Z      0.156000
     39 H8          6.5380   -9.0050   -1.4380 ha        1 79Z      0.156000
     40 H9          5.7190   -6.6460   -1.3050 ha        1 79Z      0.168000
     41 H12         4.1850   -2.6350   -2.7980 ha        1 79Z      0.155000
     42 H13A        1.2980   -2.5140    1.3450 ha        1 79Z      0.152000
     43 HN21        2.6780   -3.9630    2.8420 hn        1 79Z      0.317500
     44 H122        2.3180   -5.3330    4.9010 h1        1 79Z      0.046367
     45 H222        0.9380   -4.1870    4.5630 h1        1 79Z      0.046367
     46 H322        0.8090   -5.9440    4.0710 h1        1 79Z      0.046367
     47 H127        6.6910    0.5790   -2.0250 h1        1 79Z      0.115700
     48 H227        5.8890    0.0380   -3.5320 h1        1 79Z      0.115700
     49 H327        5.8580   -1.0010   -2.0700 h1        1 79Z      0.115700
     50 H129        2.9360    0.4690   -4.1940 h1        1 79Z      0.062200
     51 H229        1.9750   -1.0250   -3.7670 h1        1 79Z      0.062200
     52 H130        0.3820    0.3420   -2.4010 h1        1 79Z      0.055700
     53 H230        0.5620    1.0010   -4.1060 h1        1 79Z      0.055700
     54 HO31        2.0540    2.5250   -3.0690 ho        1 79Z      0.427000
@<TRIPOS>BOND
     1    1    2 1   
     2    1    3 1   
     3    1   32 1   
     4    1   33 1   
     5    2    3 1   
     6    2   10 1   
     7    2   34 1   
     8    3   35 1   
     9    3   36 1   
    10    4    5 ar  
    11    4    9 ar  
    12    4   17 1   
    13    5    6 ar  
    14    5   37 1   
    15    6    7 ar  
    16    6   38 1   
    17    7    8 ar  
    18    7   28 1   
    19    8    9 ar  
    20    8   39 1   
    21    9   40 1   
    22   10   11 ar  
    23   10   13 ar  
    24   11   12 ar  
    25   11   23 1   
    26   12   15 ar  
    27   12   41 1   
    28   13   14 ar  
    29   13   42 1   
    30   14   15 ar  
    31   14   18 1   
    32   15   16 1   
    33   16   17 1   
    34   17   18 2   
    35   18   19 1   
    36   19   20 2   
    37   19   21 1   
    38   21   22 1   
    39   21   43 1   
    40   22   44 1   
    41   22   45 1   
    42   22   46 1   
    43   23   24 1   
    44   23   29 1   
    45   24   25 2   
    46   24   26 2   
    47   24   27 1   
    48   27   47 1   
    49   27   48 1   
    50   27   49 1   
    51   29   30 1   
    52   29   50 1   
    53   29   51 1   
    54   30   31 1   
    55   30   52 1   
    56   30   53 1   
    57   31   54 1   
@<TRIPOS>SUBSTRUCTURE
     1 79Z         1 TEMP              0 ****  ****    0 ROOT
