@<TRIPOS>MOLECULE
79Z
   54    46     1     0     0
SMALL
bcc


@<TRIPOS>ATOM
      1 C1         -1.5900    3.9480   -0.9280 cx        1 79Z     -0.201500
      2 C2         -1.5030    3.0380    0.2860 cx        1 79Z     -0.154000
      3 C3         -2.7250    2.9860   -0.6170 cx        1 79Z     -0.201500
      4 C4          0.1940   -4.0390   -0.7500 c1        1 79Z     -0.080000
      5 C5          0.2410   -4.4130   -2.0890 c1        1 79Z     -0.118000
      6 C6          0.4890   -5.7360   -2.4320 c1        1 79Z     -0.118000
      7 C7          0.6890   -6.6860   -1.4380 c1        1 79Z      0.116000
      8 C8          0.6420   -6.3130   -0.1000 c1        1 79Z     -0.181000
      9 C9          0.3940   -4.9900    0.2440 c1        1 79Z     -0.065000
     10 C10        -0.5310    1.8520    0.1640 c2        1 79Z     -0.021000
     11 C11         0.8580    1.7550    0.2680 c2        1 79Z      0.062000
     12 C12         1.4790    0.5110    0.1670 c1        1 79Z     -0.130000
     13 C13        -1.2970    0.7050   -0.0420 c1        1 79Z     -0.087000
     14 C14        -0.6680   -0.5550   -0.1450 c1        1 79Z     -0.026000
     15 C15         0.7040   -0.6520   -0.0410 c1        1 79Z     -0.026000
     16 O16         1.0540   -1.9920   -0.2020 o         1 79Z     -0.109000
     17 C17        -0.1010   -2.7150   -0.4030 c1        1 79Z      0.130000
     18 C18        -1.1710   -1.8320   -0.3690 c1        1 79Z     -0.187000
     19 C19        -2.5970   -2.2800   -0.6990 c1        1 79Z      0.380000
     20 O20        -2.9910   -2.2620   -1.8540 o         1 79Z     -0.375000
     21 N21        -3.4730   -2.7210    0.3510 n2        1 79Z     -0.379000
     22 C22        -4.8360   -3.0640    0.0530 c3        1 79Z     -0.077000
     23 N23         1.8450    2.6900    0.7640 n3        1 79Z     -0.784000
     24 S24         2.1860    2.7550    2.3920 s4        1 79Z      2.029800
     25 O25         1.9180    4.0660    2.9310 o         1 79Z     -0.536400
     26 O26         1.2660    1.9470    3.1520 o         1 79Z     -0.536400
     27 C27         3.8810    2.2640    2.6910 c2        1 79Z     -0.947000
     28 F28         0.9080   -7.9690   -1.7700 f         1 79Z     -0.100000
     29 C29         2.5680    3.5310   -0.1590 c3        1 79Z     -0.019000
     30 C30         2.0850    4.9800   -0.0180 c3        1 79Z     -0.050000
     31 O31         3.0920    5.8600   -0.4820 oh        1 79Z     -0.331000
     32 H11        -1.7700    4.8960   -0.7390 hc        1 79Z      0.113500
     33 H21        -1.0170    3.7020   -1.6890 hc        1 79Z      0.113500
     34 H2         -1.6340    3.4750    1.1570 hc        1 79Z      0.162000
     35 H13        -3.5420    3.3930   -0.2540 hc        1 79Z      0.113500
     36 H23        -2.7890    2.1990   -1.2030 hc        1 79Z      0.113500
     37 H5          0.0990   -3.7420   -2.7900 ha        1 79Z      0.171500
     38 H6          0.5220   -5.9990   -3.3770 ha        1 79Z      0.171500
     39 H8          0.7840   -6.9850    0.6020 ha        1 79Z      0.153000
     40 H9          0.3610   -4.7260    1.1880 ha        1 79Z      0.150000
     41 H12         2.4580    0.4420    0.2410 ha        1 79Z      0.156000
     42 H13A       -2.2770    0.7680   -0.0660 ha        1 79Z      0.154000
     43 HN21       -3.1570   -2.7980    1.2090 hn        1 79Z      0.231000
     44 H122       -5.2960   -2.2820   -0.3260 h1        1 79Z      0.085667
     45 H222       -4.8550   -3.8010   -0.5980 h1        1 79Z      0.085667
     46 H322       -5.2920   -3.3440    0.8790 h1        1 79Z      0.085667
     47 H127        4.4840    2.8320    2.1640 ha        1 79Z      0.156333
     48 H227        4.0870    2.3650    3.6470 ha        1 79Z      0.156333
     49 H327        4.0010    1.3260    2.4270 ha        1 79Z      0.156333
     50 H129        3.5290    3.4860    0.0410 h1        1 79Z      0.103500
     51 H229        2.4100    3.2210   -1.0790 h1        1 79Z      0.103500
     52 H130        1.2700    5.1060   -0.5500 h1        1 79Z      0.089000
     53 H230        1.8930    5.1700    0.9270 h1        1 79Z      0.089000
     54 HO31        2.7190    6.6290   -0.7380 ho        1 79Z      0.208000
@<TRIPOS>BOND
     1    1    2 1   
     2    1    3 1   
     3    1   32 1   
     4    1   33 1   
     5    2    3 1   
     6    2   10 1   
     7    2   34 1   
     8    3   35 1   
     9    3   36 1   
    10    4    9 1   
    11    5    6 1   
    12    5   37 1   
    13    6   38 1   
    14    7    8 1   
    15    7   28 1   
    16    8   39 1   
    17    9   40 1   
    18   10   11 1   
    19   10   13 1   
    20   11   12 1   
    21   11   23 1   
    22   12   41 1   
    23   13   42 1   
    24   14   15 1   
    25   16   17 1   
    26   17   18 1   
    27   19   20 1   
    28   21   22 1   
    29   21   43 1   
    30   22   44 1   
    31   22   45 1   
    32   22   46 1   
    33   23   24 1   
    34   23   29 1   
    35   24   25 1   
    36   24   26 1   
    37   27   47 1   
    38   27   48 1   
    39   27   49 1   
    40   29   30 1   
    41   29   50 1   
    42   29   51 1   
    43   30   31 1   
    44   30   52 1   
    45   30   53 1   
    46   31   54 1   
@<TRIPOS>SUBSTRUCTURE
     1 79Z         1 TEMP              0 ****  ****    0 ROOT
