@<TRIPOS>MOLECULE
7A5
   53    55     1     0     0
SMALL
bcc


@<TRIPOS>ATOM
      1 C1          0.2030    0.4060    0.0760 cc        1 7A5     -0.285200
      2 C2          1.5300    0.0630   -0.0750 cd        1 7A5      0.351600
      3 N3          2.3570   -0.1970    1.0220 nd        1 7A5     -0.704300
      4 C4         -0.3770    0.5190    1.4070 c         1 7A5      0.703700
      5 O5         -1.5630    0.8120    1.6430 o         1 7A5     -0.624500
      6 N6          0.5010    0.2840    2.5000 n         1 7A5     -0.397300
      7 C7          1.8360   -0.1000    2.2560 cc        1 7A5      0.702800
      8 N8          2.6910   -0.4360    3.3580 nh        1 7A5     -0.710600
      9 C9          2.1220   -0.6900    4.6660 c3        1 7A5      0.188500
     10 C10         0.5950   -0.7070    4.7410 c3        1 7A5     -0.110400
     11 C11         0.0180    0.3890    3.8590 c3        1 7A5      0.076000
     12 N12         2.0740   -0.0090   -1.4120 nh        1 7A5     -0.593400
     13 C13         2.6250   -2.0980    5.2180 c3        1 7A5      0.610900
     14 F14         3.9820   -2.1760    5.3960 f         1 7A5     -0.234633
     15 F15         2.1030   -2.3730    6.4570 f         1 7A5     -0.234633
     16 F16         2.2990   -3.1780    4.4470 f         1 7A5     -0.234633
     17 C17         3.1440    0.9520   -1.6570 c3        1 7A5      0.137800
     18 C18         4.5600    0.4870   -1.3040 c3        1 7A5      0.099400
     19 O19         4.8390   -0.7970   -1.8490 os        1 7A5     -0.413600
     20 C20         3.8830   -1.7780   -1.4590 c3        1 7A5      0.097400
     21 C21         2.4530   -1.3590   -1.8530 c3        1 7A5      0.150500
     22 C22         1.4880   -2.4530   -1.4190 c3        1 7A5     -0.097100
     23 C23         4.0090    0.1640    3.3580 c3        1 7A5      0.092800
     24 C24         4.1160    1.6120    3.8120 c         1 7A5      0.540100
     25 O25         3.1980    2.2030    4.3870 o         1 7A5     -0.530100
     26 C26         5.4520    2.2480    3.5080 c3        1 7A5     -0.159700
     27 C27         5.3950    2.9090    2.1440 c3        1 7A5     -0.090600
     28 C28         5.8280    3.2520    4.5770 c3        1 7A5     -0.090600
     29 H1         -0.4700    0.6090   -0.7680 ha        1 7A5      0.184000
     30 H111        0.3140    1.4000    4.2670 h1        1 7A5      0.089200
     31 H112       -1.1080    0.3250    3.8510 h1        1 7A5      0.089200
     32 H9          2.5160    0.0730    5.4060 h1        1 7A5      0.095700
     33 H231        4.4530    0.0840    2.3230 h1        1 7A5      0.105700
     34 H232        4.6580   -0.4510    4.0520 h1        1 7A5      0.105700
     35 H101        0.2060   -1.7120    4.4260 hc        1 7A5      0.083700
     36 H102        0.2830   -0.5370    5.8040 hc        1 7A5      0.083700
     37 H171        2.9250    1.9050   -1.1030 h1        1 7A5      0.065200
     38 H172        3.1030    1.1670   -2.7640 h1        1 7A5      0.065200
     39 H21         2.4230   -1.2840   -2.9840 h1        1 7A5      0.073700
     40 H181        5.3200    1.1600   -1.7810 h1        1 7A5      0.053200
     41 H182        4.7150    0.4640   -0.1930 h1        1 7A5      0.053200
     42 H201        3.9600   -1.9660   -0.3570 h1        1 7A5      0.061700
     43 H202        4.1850   -2.6960   -2.0290 h1        1 7A5      0.061700
     44 H221        1.7600   -3.4010   -1.9440 hc        1 7A5      0.047367
     45 H222        1.5450   -2.6280   -0.3180 hc        1 7A5      0.047367
     46 H223        0.4370   -2.1860   -1.6860 hc        1 7A5      0.047367
     47 H26         6.2340    1.4360    3.4820 hc        1 7A5      0.064700
     48 H271        6.3860    3.3650    1.9040 hc        1 7A5      0.047200
     49 H272        5.1460    2.1600    1.3530 hc        1 7A5      0.047200
     50 H273        4.6210    3.7150    2.1320 hc        1 7A5      0.047200
     51 H281        6.7920    3.7490    4.3130 hc        1 7A5      0.047200
     52 H282        5.0330    4.0310    4.6740 hc        1 7A5      0.047200
     53 H283        5.9460    2.7430    5.5640 hc        1 7A5      0.047200
@<TRIPOS>BOND
     1    1    2 2   
     2    1    4 1   
     3    1   29 1   
     4    2    3 1   
     5    2   12 1   
     6    3    7 2   
     7    4    5 2   
     8    4    6 1   
     9    6    7 1   
    10    6   11 1   
    11    7    8 1   
    12    8    9 1   
    13    8   23 1   
    14    9   10 1   
    15    9   13 1   
    16    9   32 1   
    17   10   11 1   
    18   10   35 1   
    19   10   36 1   
    20   11   30 1   
    21   11   31 1   
    22   12   17 1   
    23   12   21 1   
    24   13   14 1   
    25   13   15 1   
    26   13   16 1   
    27   17   18 1   
    28   17   37 1   
    29   17   38 1   
    30   18   19 1   
    31   18   40 1   
    32   18   41 1   
    33   19   20 1   
    34   20   21 1   
    35   20   42 1   
    36   20   43 1   
    37   21   22 1   
    38   21   39 1   
    39   22   44 1   
    40   22   45 1   
    41   22   46 1   
    42   23   24 1   
    43   23   33 1   
    44   23   34 1   
    45   24   25 2   
    46   24   26 1   
    47   26   27 1   
    48   26   28 1   
    49   26   47 1   
    50   27   48 1   
    51   27   49 1   
    52   27   50 1   
    53   28   51 1   
    54   28   52 1   
    55   28   53 1   
@<TRIPOS>SUBSTRUCTURE
     1 7A5         1 TEMP              0 ****  ****    0 ROOT
