@<TRIPOS>MOLECULE
7A5
   53    55     1     0     0
SMALL
bcc


@<TRIPOS>ATOM
      1 C1          0.1440    0.5310    0.1260 cc        1 7A5     -0.322200
      2 C2          1.4090   -0.0180    0.0060 cd        1 7A5      0.373600
      3 N3          2.1780   -0.3380    1.1280 nd        1 7A5     -0.707300
      4 C4         -0.4200    0.7970    1.4380 c         1 7A5      0.709700
      5 O5         -1.5470    1.2820    1.6460 o         1 7A5     -0.628500
      6 N6          0.4050    0.4820    2.5550 n         1 7A5     -0.396300
      7 C7          1.6640   -0.1120    2.3490 cc        1 7A5      0.707800
      8 N8          2.4540   -0.5260    3.4740 nh        1 7A5     -0.706600
      9 C9          1.8680   -0.5540    4.7990 c3        1 7A5      0.187500
     10 C10         0.3530   -0.3520    4.8620 c3        1 7A5     -0.110400
     11 C11        -0.0660    0.7440    3.8970 c3        1 7A5      0.076000
     12 N12         1.9170   -0.2720   -1.3130 nh        1 7A5     -0.599400
     13 C13         2.1660   -1.9540    5.5020 c3        1 7A5      0.610900
     14 F14         3.4960   -2.2040    5.7150 f         1 7A5     -0.234300
     15 F15         1.6040   -2.0230    6.7530 f         1 7A5     -0.234300
     16 F16         1.6940   -3.0520    4.8390 f         1 7A5     -0.234300
     17 C17         2.3920    0.9420   -1.9750 c3        1 7A5      0.136800
     18 C18         3.8570    1.2900   -1.6910 c3        1 7A5      0.094400
     19 O19         4.7160    0.1830   -1.9360 os        1 7A5     -0.416600
     20 C20         4.3330   -0.9860   -1.2160 c3        1 7A5      0.097400
     21 C21         2.8690   -1.3700   -1.5050 c3        1 7A5      0.163500
     22 C22         2.5340   -2.6650   -0.7790 c3        1 7A5     -0.092100
     23 C23         3.8610   -0.1820    3.4260 c3        1 7A5      0.089800
     24 C24         4.2310    1.2740    3.6660 c         1 7A5      0.541100
     25 O25         3.4540    2.0820    4.1820 o         1 7A5     -0.530100
     26 C26         5.6350    1.6270    3.2360 c3        1 7A5     -0.158700
     27 C27         5.6420    1.9750    1.7600 c3        1 7A5     -0.090600
     28 C28         6.1830    2.7720    4.0620 c3        1 7A5     -0.090600
     29 H1         -0.4900    0.7810   -0.7350 ha        1 7A5      0.180000
     30 H111        0.3560    1.7340    4.2380 h1        1 7A5      0.088700
     31 H112       -1.1920    0.8280    3.8770 h1        1 7A5      0.088700
     32 H9          2.3710    0.2200    5.4570 h1        1 7A5      0.094700
     33 H231        4.3900   -0.7930    4.2180 h1        1 7A5      0.105200
     34 H232        4.2800   -0.4970    2.4250 h1        1 7A5      0.105200
     35 H101       -0.1720   -1.3140    4.6210 hc        1 7A5      0.084200
     36 H102        0.0720   -0.0610    5.9070 hc        1 7A5      0.084200
     37 H171        2.2690    0.7610   -3.0800 h1        1 7A5      0.070700
     38 H172        1.7410    1.8100   -1.6820 h1        1 7A5      0.070700
     39 H21         2.7960   -1.5750   -2.6210 h1        1 7A5      0.069700
     40 H181        4.2150    2.0810   -2.4010 h1        1 7A5      0.054200
     41 H182        3.9890    1.6380   -0.6310 h1        1 7A5      0.054200
     42 H201        4.5070   -0.8260   -0.1200 h1        1 7A5      0.058700
     43 H202        5.0220   -1.7830   -1.6020 h1        1 7A5      0.058700
     44 H221        2.9370   -2.6710    0.2620 hc        1 7A5      0.048700
     45 H222        3.0000   -3.5130   -1.3370 hc        1 7A5      0.048700
     46 H223        1.4310   -2.8320   -0.7370 hc        1 7A5      0.048700
     47 H26         6.2870    0.7210    3.3960 hc        1 7A5      0.064700
     48 H271        4.9760    2.8490    1.5600 hc        1 7A5      0.047533
     49 H272        5.2910    1.1090    1.1470 hc        1 7A5      0.047533
     50 H273        6.6790    2.2390    1.4410 hc        1 7A5      0.047533
     51 H281        6.2360    2.4840    5.1390 hc        1 7A5      0.047533
     52 H282        7.2080    3.0410    3.7110 hc        1 7A5      0.047533
     53 H283        5.5220    3.6670    3.9700 hc        1 7A5      0.047533
@<TRIPOS>BOND
     1    1    2 2   
     2    1    4 1   
     3    1   29 1   
     4    2    3 1   
     5    2   12 1   
     6    3    7 2   
     7    4    5 2   
     8    4    6 1   
     9    6    7 1   
    10    6   11 1   
    11    7    8 1   
    12    8    9 1   
    13    8   23 1   
    14    9   10 1   
    15    9   13 1   
    16    9   32 1   
    17   10   11 1   
    18   10   35 1   
    19   10   36 1   
    20   11   30 1   
    21   11   31 1   
    22   12   17 1   
    23   12   21 1   
    24   13   14 1   
    25   13   15 1   
    26   13   16 1   
    27   17   18 1   
    28   17   37 1   
    29   17   38 1   
    30   18   19 1   
    31   18   40 1   
    32   18   41 1   
    33   19   20 1   
    34   20   21 1   
    35   20   42 1   
    36   20   43 1   
    37   21   22 1   
    38   21   39 1   
    39   22   44 1   
    40   22   45 1   
    41   22   46 1   
    42   23   24 1   
    43   23   33 1   
    44   23   34 1   
    45   24   25 2   
    46   24   26 1   
    47   26   27 1   
    48   26   28 1   
    49   26   47 1   
    50   27   48 1   
    51   27   49 1   
    52   27   50 1   
    53   28   51 1   
    54   28   52 1   
    55   28   53 1   
@<TRIPOS>SUBSTRUCTURE
     1 7A5         1 TEMP              0 ****  ****    0 ROOT
