@<TRIPOS>MOLECULE
7A8
   28    28     1     0     0
SMALL
bcc


@<TRIPOS>ATOM
      1 C5          0.0420   -0.1630   -0.0110 c3        1 7A8     -0.053200
      2 C6          1.5240   -0.1400   -0.0390 c2        1 7A8     -0.201200
      3 C7          2.2980    0.0180    1.0440 c2        1 7A8     -0.081400
      4 C8          1.7240    0.1560    2.4100 c3        1 7A8     -0.052200
      5 C9          0.2450    0.4980    2.3920 c3        1 7A8     -0.099400
      6 C10        -0.4810   -0.4280    1.4090 c3        1 7A8      0.125500
      7 N12        -1.9900   -0.2590    1.5030 nx        1 7A8     -0.682400
      8 C13         3.7770    0.0510    0.9680 c3        1 7A8     -0.070900
      9 C14        -2.6910   -0.8650    0.3420 c3        1 7A8      0.082100
     10 C15        -2.5150   -0.8400    2.7670 c3        1 7A8      0.082100
     11 H51        -0.3200   -0.9690   -0.7060 hc        1 7A8      0.067200
     12 H52        -0.3400    0.8240   -0.3930 hc        1 7A8      0.067200
     13 H6          1.9610   -0.2460   -1.0460 ha        1 7A8      0.158000
     14 H81         2.2710    0.9620    2.9720 hc        1 7A8      0.079200
     15 H82         1.8870   -0.8060    2.9700 hc        1 7A8      0.079200
     16 H91        -0.1580    0.3930    3.4320 hc        1 7A8      0.065200
     17 H92         0.1110    1.5660    2.0740 hc        1 7A8      0.065200
     18 H10        -0.2690   -1.5050    1.6810 hx        1 7A8      0.108700
     19 H131        4.2170   -0.6930    1.6790 hc        1 7A8      0.061700
     20 H132        4.1410   -0.1840   -0.0620 hc        1 7A8      0.061700
     21 H133        4.1500    1.0680    1.2500 hc        1 7A8      0.061700
     22 H141       -2.3570   -1.9290    0.2150 hx        1 7A8      0.104700
     23 H142       -3.8000   -0.8390    0.5210 hx        1 7A8      0.104700
     24 H143       -2.4560   -0.2810   -0.5890 hx        1 7A8      0.104700
     25 H151       -3.6240   -0.6680    2.8210 hx        1 7A8      0.104700
     26 H152       -2.0220   -0.3480    3.6470 hx        1 7A8      0.104700
     27 H153       -2.3070   -1.9420    2.7880 hx        1 7A8      0.104700
     28 H121       -2.1850    0.7510    1.5060 hn        1 7A8      0.446800
@<TRIPOS>BOND
     1    1    2 1   
     2    1    6 1   
     3    1   11 1   
     4    1   12 1   
     5    2    3 2   
     6    2   13 1   
     7    3    4 1   
     8    3    8 1   
     9    4    5 1   
    10    4   14 1   
    11    4   15 1   
    12    5    6 1   
    13    5   16 1   
    14    5   17 1   
    15    6    7 1   
    16    6   18 1   
    17    7    9 1   
    18    7   10 1   
    19    7   28 1   
    20    8   19 1   
    21    8   20 1   
    22    8   21 1   
    23    9   22 1   
    24    9   23 1   
    25    9   24 1   
    26   10   25 1   
    27   10   26 1   
    28   10   27 1   
@<TRIPOS>SUBSTRUCTURE
     1 7A8         1 TEMP              0 ****  ****    0 ROOT
