@<TRIPOS>MOLECULE
7A8
   28    28     1     0     0
SMALL
bcc


@<TRIPOS>ATOM
      1 C5          0.0430   -0.1590   -0.0100 c3        1 7A8     -0.053200
      2 C6          1.5240   -0.1280   -0.0370 c2        1 7A8     -0.201200
      3 C7          2.2970    0.0300    1.0470 c2        1 7A8     -0.081400
      4 C8          1.7210    0.1610    2.4130 c3        1 7A8     -0.052200
      5 C9          0.2410    0.4960    2.3940 c3        1 7A8     -0.099400
      6 C10        -0.4800   -0.4310    1.4080 c3        1 7A8      0.125500
      7 N12        -1.9900   -0.2700    1.5010 n4        1 7A8     -0.682400
      8 C13         3.7760    0.0710    0.9720 c3        1 7A8     -0.070900
      9 C14        -2.6870   -0.8750    0.3370 c3        1 7A8      0.082100
     10 C15        -2.5130   -0.8570    2.7630 c3        1 7A8      0.082100
     11 H51        -0.3440    0.8270   -0.3900 hc        1 7A8      0.067200
     12 H52        -0.3140   -0.9640   -0.7090 hc        1 7A8      0.067200
     13 H6          1.9640   -0.2290   -1.0440 ha        1 7A8      0.158000
     14 H81         2.2630    0.9680    2.9780 hc        1 7A8      0.079200
     15 H82         1.8890   -0.8010    2.9700 hc        1 7A8      0.079200
     16 H91         0.1010    1.5650    2.0790 hc        1 7A8      0.065200
     17 H92        -0.1630    0.3850    3.4340 hc        1 7A8      0.065200
     18 H10        -0.2630   -1.5080    1.6770 hx        1 7A8      0.108700
     19 H131        4.2190   -0.6730    1.6810 hc        1 7A8      0.061700
     20 H132        4.1440    1.0890    1.2580 hc        1 7A8      0.061700
     21 H133        4.1420   -0.1590   -0.0580 hc        1 7A8      0.061700
     22 H141       -2.3480   -1.9380    0.2070 hx        1 7A8      0.104700
     23 H142       -2.4540   -0.2880   -0.5920 hx        1 7A8      0.104700
     24 H143       -3.7960   -0.8560    0.5160 hx        1 7A8      0.104700
     25 H151       -2.0240   -0.3660    3.6450 hx        1 7A8      0.104700
     26 H152       -2.2990   -1.9590    2.7810 hx        1 7A8      0.104700
     27 H153       -3.6230   -0.6920    2.8160 hx        1 7A8      0.104700
     28 H121       -2.1900    0.7390    1.5070 hn        1 7A8      0.446800
@<TRIPOS>BOND
     1    1    2 1   
     2    1    6 1   
     3    1   11 1   
     4    1   12 1   
     5    2    3 2   
     6    2   13 1   
     7    3    4 1   
     8    3    8 1   
     9    4    5 1   
    10    4   14 1   
    11    4   15 1   
    12    5    6 1   
    13    5   16 1   
    14    5   17 1   
    15    6    7 1   
    16    6   18 1   
    17    7    9 1   
    18    7   10 1   
    19    7   28 1   
    20    8   19 1   
    21    8   20 1   
    22    8   21 1   
    23    9   22 1   
    24    9   23 1   
    25    9   24 1   
    26   10   25 1   
    27   10   26 1   
    28   10   27 1   
@<TRIPOS>SUBSTRUCTURE
     1 7A8         1 TEMP              0 ****  ****    0 ROOT
