@<TRIPOS>MOLECULE
7A8
   28    28     1     0     0
SMALL
bcc


@<TRIPOS>ATOM
      1 C5          0.0410   -0.1920   -0.0120 c3        1 7A8     -0.053200
      2 C6          1.5230   -0.1660   -0.0410 c2        1 7A8     -0.201200
      3 C7          2.2970    0.0170    1.0380 c2        1 7A8     -0.081400
      4 C8          1.7220    0.1820    2.4010 c3        1 7A8     -0.052200
      5 C9          0.2430    0.5200    2.3760 c3        1 7A8     -0.099400
      6 C10        -0.4810   -0.4290    1.4130 c3        1 7A8      0.125500
      7 N12        -1.9900   -0.2620    1.5040 n4        1 7A8     -0.682400
      8 C13         3.7760    0.0520    0.9610 c3        1 7A8     -0.070900
      9 C14        -2.6900   -0.8930    0.3550 c3        1 7A8      0.082100
     10 C15        -2.5130   -0.8180    2.7800 c3        1 7A8      0.082100
     11 H51        -0.3440    0.7850   -0.4150 hc        1 7A8      0.067200
     12 H52        -0.3190   -1.0130   -0.6900 hc        1 7A8      0.067200
     13 H6          1.9600   -0.2920   -1.0460 ha        1 7A8      0.158000
     14 H81         1.8890   -0.7670    2.9810 hc        1 7A8      0.079200
     15 H82         2.2680    1.0010    2.9450 hc        1 7A8      0.079200
     16 H91        -0.1600    0.4350    3.4180 hc        1 7A8      0.065200
     17 H92         0.1060    1.5810    2.0350 hc        1 7A8      0.065200
     18 H10        -0.2660   -1.4990    1.7080 hx        1 7A8      0.108700
     19 H131        4.1460    1.0760    1.2210 hc        1 7A8      0.061700
     20 H132        4.1400   -0.2040   -0.0640 hc        1 7A8      0.061700
     21 H133        4.2180   -0.6750    1.6870 hc        1 7A8      0.061700
     22 H141       -3.7990   -0.8670    0.5350 hx        1 7A8      0.104700
     23 H142       -2.3540   -1.9590    0.2510 hx        1 7A8      0.104700
     24 H143       -2.4570   -0.3280   -0.5870 hx        1 7A8      0.104700
     25 H151       -2.3030   -1.9200    2.8230 hx        1 7A8      0.104700
     26 H152       -3.6230   -0.6480    2.8310 hx        1 7A8      0.104700
     27 H153       -2.0210   -0.3080    3.6500 hx        1 7A8      0.104700
     28 H121       -2.1880    0.7470    1.4860 hn        1 7A8      0.446800
@<TRIPOS>BOND
     1    1    2 1   
     2    1    6 1   
     3    1   11 1   
     4    1   12 1   
     5    2    3 2   
     6    2   13 1   
     7    3    4 1   
     8    3    8 1   
     9    4    5 1   
    10    4   14 1   
    11    4   15 1   
    12    5    6 1   
    13    5   16 1   
    14    5   17 1   
    15    6    7 1   
    16    6   18 1   
    17    7    9 1   
    18    7   10 1   
    19    7   28 1   
    20    8   19 1   
    21    8   20 1   
    22    8   21 1   
    23    9   22 1   
    24    9   23 1   
    25    9   24 1   
    26   10   25 1   
    27   10   26 1   
    28   10   27 1   
@<TRIPOS>SUBSTRUCTURE
     1 7A8         1 TEMP              0 ****  ****    0 ROOT
