@<TRIPOS>MOLECULE
7A8
   27    27     1     0     0
SMALL
bcc


@<TRIPOS>ATOM
      1 C5          1.2800   -0.1040   -0.0160 c3        1 7A8     -0.047200
      2 C6          1.1970    0.0830   -1.4840 c2        1 7A8     -0.173200
      3 C7          0.0480    0.0810   -2.1750 c2        1 7A8     -0.118400
      4 C8         -1.2730   -0.0820   -1.5080 c3        1 7A8     -0.044200
      5 C9         -1.1530   -0.6010   -0.0900 c3        1 7A8     -0.072400
      6 C10        -0.0660    0.1780    0.6730 c3        1 7A8      0.187500
      7 N12        -0.0860   -0.1460    2.1070 n3        1 7A8     -0.739600
      8 C13         0.0040    0.2540   -3.6460 c3        1 7A8     -0.056900
      9 C14         1.1910   -0.0210    2.7700 c3        1 7A8      0.159100
     10 C15        -1.1360    0.5600    2.8090 c3        1 7A8      0.159100
     11 H51         2.0670    0.5820    0.3980 hc        1 7A8      0.053200
     12 H52         1.6050   -1.1610    0.1900 hc        1 7A8      0.053200
     13 H6          2.1660    0.2100   -1.9930 ha        1 7A8      0.122000
     14 H81        -1.9110   -0.7870   -2.1050 hc        1 7A8      0.047200
     15 H82        -1.7940    0.9140   -1.5050 hc        1 7A8      0.047200
     16 H91        -0.8880   -1.6890   -0.1000 hc        1 7A8      0.049200
     17 H92        -2.1470   -0.5020    0.4190 hc        1 7A8      0.049200
     18 H10        -0.2800    1.2840    0.5320 h1        1 7A8      0.024700
     19 H131        1.0160    0.4690   -4.0660 hc        1 7A8      0.040700
     20 H132       -0.3890   -0.6760   -4.1300 hc        1 7A8      0.040700
     21 H133       -0.6780    1.0990   -3.9140 hc        1 7A8      0.040700
     22 H141        1.0560   -0.2320    3.8640 h1        1 7A8      0.029867
     23 H142        1.9000   -0.7830    2.3530 h1        1 7A8      0.029867
     24 H143        1.6550    0.9990    2.6640 h1        1 7A8      0.029867
     25 H151       -2.1150    0.3810    2.2950 h1        1 7A8      0.029867
     26 H152       -1.2030    0.1570    3.8540 h1        1 7A8      0.029867
     27 H153       -0.9640    1.6710    2.8650 h1        1 7A8      0.029867
@<TRIPOS>BOND
     1    1    2 1   
     2    1    6 1   
     3    1   11 1   
     4    1   12 1   
     5    2    3 2   
     6    2   13 1   
     7    3    4 1   
     8    3    8 1   
     9    4    5 1   
    10    4   14 1   
    11    4   15 1   
    12    5    6 1   
    13    5   16 1   
    14    5   17 1   
    15    6    7 1   
    16    6   18 1   
    17    7    9 1   
    18    7   10 1   
    19    8   19 1   
    20    8   20 1   
    21    8   21 1   
    22    9   22 1   
    23    9   23 1   
    24    9   24 1   
    25   10   25 1   
    26   10   26 1   
    27   10   27 1   
@<TRIPOS>SUBSTRUCTURE
     1 7A8         1 TEMP              0 ****  ****    0 ROOT
