@<TRIPOS>MOLECULE
7A8
   27    26     1     0     0
SMALL
bcc


@<TRIPOS>ATOM
      1 C5          0.0610    0.5900   -1.3220 c3        1 7A8     -0.130000
      2 C6          1.4910    0.5900   -1.3220 c2        1 7A8     -0.169000
      3 C7          2.2260    0.5900    0.2030 c1        1 7A8     -0.110000
      4 C8          1.4950   -0.1040    1.2600 c2        1 7A8     -0.127000
      5 C9         -0.1080    0.0340    1.0850 c3        1 7A8     -0.151000
      6 C10        -0.5670   -0.2620   -0.0640 c3        1 7A8     -0.010000
      7 N12        -2.0850   -0.0310   -0.0430 n3        1 7A8     -0.265000
      8 C13         3.7240    0.7910    0.3220 c3        1 7A8     -0.179000
      9 C14        -2.6290   -0.3360   -1.3220 c3        1 7A8     -0.117000
     10 C15        -2.6800   -0.8730    0.9380 c3        1 7A8     -0.117000
     11 H51        -0.3260    0.2440   -2.1490 hc        1 7A8      0.092500
     12 H52        -0.2610    1.5120   -1.3390 hc        1 7A8      0.092500
     13 H6          1.9790    0.9230   -2.0990 ha        1 7A8      0.122000
     14 H81         1.8560    0.1060    2.1420 ha        1 7A8      0.086500
     15 H82         1.6960   -1.0580    1.2170 ha        1 7A8      0.086500
     16 H91        -0.3570    0.9560    1.2840 hc        1 7A8      0.088500
     17 H92        -0.5370   -0.5470    1.7430 hc        1 7A8      0.088500
     18 H10        -0.4020   -1.2110   -0.2240 h1        1 7A8      0.064000
     19 H131        3.9480    1.0270    1.2420 hc        1 7A8      0.080000
     20 H132        4.0040    1.5090   -0.2760 hc        1 7A8      0.080000
     21 H133        4.1830   -0.0350    0.0770 hc        1 7A8      0.080000
     22 H141       -3.5920   -0.4760   -1.2410 h1        1 7A8      0.069167
     23 H142       -2.2100   -1.1470   -1.6680 h1        1 7A8      0.069167
     24 H143       -2.4570    0.4050   -1.9330 h1        1 7A8      0.069167
     25 H151       -3.6400   -0.9410    0.7710 h1        1 7A8      0.069167
     26 H152       -2.5310   -0.4950    1.8260 h1        1 7A8      0.069167
     27 H153       -2.2780   -1.7620    0.8920 h1        1 7A8      0.069167
@<TRIPOS>BOND
     1    1    2 1   
     2    1    6 1   
     3    1   11 1   
     4    1   12 1   
     5    2    3 1   
     6    2   13 1   
     7    3    8 1   
     8    4    5 1   
     9    4   14 1   
    10    4   15 1   
    11    5    6 1   
    12    5   16 1   
    13    5   17 1   
    14    6    7 1   
    15    6   18 1   
    16    7    9 1   
    17    7   10 1   
    18    8   19 1   
    19    8   20 1   
    20    8   21 1   
    21    9   22 1   
    22    9   23 1   
    23    9   24 1   
    24   10   25 1   
    25   10   26 1   
    26   10   27 1   
@<TRIPOS>SUBSTRUCTURE
     1 7A8         1 TEMP              0 ****  ****    0 ROOT
