@<TRIPOS>MOLECULE
7AC
   35    37     1     0     0
SMALL
bcc


@<TRIPOS>ATOM
      1 C5          0.0010    0.0360   -0.0500 ca        1 7AC      0.065400
      2 C6          1.3920    0.0390   -0.0100 ca        1 7AC      0.020000
      3 C7          2.0190    0.0370    1.2430 ca        1 7AC     -0.008000
      4 C8          3.4410    0.0350    1.2910 cg        1 7AC      0.207800
      5 C10         1.2760    0.0340    2.4410 cp        1 7AC      0.042000
      6 C13         3.2570    1.3110    5.3770 ca        1 7AC     -0.119000
      7 C15         2.9970   -1.0780    5.6340 ca        1 7AC     -0.110000
      8 C21        -0.7830    0.0230    1.1850 ca        1 7AC     -0.020200
      9 N2         -2.1220    0.0270    0.7760 na        1 7AC     -0.186300
     10 C3         -2.1000    0.0200   -0.6490 cc        1 7AC      0.450700
     11 N4         -0.8710    0.0390   -1.1630 nd        1 7AC     -0.521100
     12 N9          4.6040    0.0300    1.3200 n1        1 7AC     -0.301800
     13 C11         2.0000    0.0520    3.7230 cp        1 7AC     -0.111000
     14 C12         2.5160    1.2680    4.2000 ca        1 7AC     -0.157000
     15 C14         3.4990    0.1370    6.0940 ca        1 7AC     -0.096000
     16 C16         2.2460   -1.1230    4.4510 ca        1 7AC      0.021400
     17 Cl17        1.6620   -2.6210    3.9120 cl        1 7AC     -0.051400
     18 C18        -0.1320    0.0310    2.4270 ca        1 7AC     -0.189300
     19 C19        -0.8620   -0.0150    3.7210 c3        1 7AC      0.180100
     20 N20        -0.7590    1.2970    4.4450 nz        1 7AC     -0.849600
     21 H6          1.9840    0.0400   -0.9420 ha        1 7AC      0.190000
     22 H13         3.6780    2.2670    5.7290 ha        1 7AC      0.160000
     23 H15         3.2060   -2.0080    6.1890 ha        1 7AC      0.173000
     24 H1         -3.4230    0.6880    2.2820 h1        1 7AC      0.058700
     25 H1A        -4.1960   -0.1660    0.8700 h1        1 7AC      0.058700
     26 H1B        -3.2700   -1.1340    2.1080 h1        1 7AC      0.058700
     27 H3         -3.0340    0.0140   -1.2310 h5        1 7AC      0.094800
     28 H12         2.3860    2.1850    3.6020 ha        1 7AC      0.147000
     29 H14         4.1030    0.1670    7.0150 ha        1 7AC      0.165000
     30 H19        -1.9570   -0.2450    3.5910 hx        1 7AC      0.112700
     31 H19A       -0.4060   -0.8030    4.3950 hx        1 7AC      0.112700
     32 HN20       -1.2500    1.2480    5.3410 hn        1 7AC      0.458467
     33 HN2A        0.2360    1.5140    4.6130 hn        1 7AC      0.458467
     34 C1         -3.3020   -0.1580    1.5510 c3        1 7AC      0.022600
     35 H203       -1.1630    2.0470    3.8770 hn        1 7AC      0.458467
@<TRIPOS>BOND
     1    1    2 ar  
     2    1    8 ar  
     3    1   11 1   
     4    2    3 ar  
     5    2   21 1   
     6    3    4 1   
     7    3    5 ar  
     8    4   12 3   
     9    5   13 1   
    10    5   18 ar  
    11    6   14 ar  
    12    6   15 ar  
    13    6   22 1   
    14    7   15 ar  
    15    7   16 ar  
    16    7   23 1   
    17    8    9 1   
    18    8   18 ar  
    19    9   10 1   
    20    9   34 1   
    21   10   11 2   
    22   10   27 1   
    23   13   14 ar  
    24   13   16 ar  
    25   14   28 1   
    26   15   29 1   
    27   16   17 1   
    28   18   19 1   
    29   19   20 1   
    30   19   30 1   
    31   19   31 1   
    32   20   32 1   
    33   20   33 1   
    34   20   35 1   
    35   24   34 1   
    36   25   34 1   
    37   26   34 1   
@<TRIPOS>SUBSTRUCTURE
     1 7AC         1 TEMP              0 ****  ****    0 ROOT
