@<TRIPOS>MOLECULE
7AC
   34    36     1     0     0
SMALL
bcc


@<TRIPOS>ATOM
      1 C5          2.4530   -1.2980    0.1410 ca        1 7AC      0.056400
      2 C6          1.3920   -2.1830    0.3440 ca        1 7AC     -0.026000
      3 C7          0.1010   -1.6620    0.4080 ca        1 7AC     -0.026000
      4 C8         -0.9820   -2.5570    0.6320 cg        1 7AC      0.239800
      5 C10        -0.1530   -0.2740    0.2570 cp        1 7AC      0.008000
      6 C13        -3.3460    1.0170    1.7710 ca        1 7AC     -0.130000
      7 C15        -3.7040    0.7500   -0.6030 ca        1 7AC     -0.125000
      8 C21         2.1960    0.1300   -0.0080 ca        1 7AC     -0.032200
      9 N2          3.4560    0.7180   -0.1810 na        1 7AC     -0.161300
     10 C3          4.3950   -0.3380   -0.1280 cc        1 7AC      0.422700
     11 N4          3.8400   -1.5420    0.0540 nd        1 7AC     -0.558100
     12 N9         -1.8600   -3.2980    0.8170 n1        1 7AC     -0.366800
     13 C11        -1.5380    0.2070    0.3680 cp        1 7AC     -0.049000
     14 C12        -2.0340    0.5740    1.6270 ca        1 7AC     -0.112000
     15 C14        -4.1810    1.1050    0.6570 ca        1 7AC     -0.114000
     16 C16        -2.3850    0.3040   -0.7490 ca        1 7AC      0.032400
     17 CL17       -1.8340   -0.1150   -2.3010 cl        1 7AC     -0.079400
     18 C18         0.8860    0.6340    0.0280 ca        1 7AC     -0.069300
     19 C19         0.5860    2.0870   -0.1930 c3        1 7AC      0.198100
     20 N20         0.6050    2.8670    1.0270 n3        1 7AC     -0.913800
     21 H6          1.5770   -3.2630    0.4540 ha        1 7AC      0.163000
     22 H13        -3.7250    1.2930    2.7670 ha        1 7AC      0.140000
     23 H15        -4.3630    0.8150   -1.4820 ha        1 7AC      0.151000
     24 H1          3.2330    2.6970    0.4870 h1        1 7AC      0.061033
     25 H1A         4.8920    2.2290   -0.1310 h1        1 7AC      0.061033
     26 H1B         3.5210    2.4840   -1.3110 h1        1 7AC      0.061033
     27 H3          5.4710   -0.1480   -0.2350 h5        1 7AC      0.071800
     28 H12        -1.3790    0.4950    2.5080 ha        1 7AC      0.144000
     29 H14        -5.2200    1.4490    0.7700 ha        1 7AC      0.140000
     30 H19         1.3560    2.5330   -0.8870 h1        1 7AC      0.041200
     31 H19A       -0.4070    2.1560   -0.7340 h1        1 7AC      0.041200
     32 HN20        0.1730    3.7560    0.8690 hn        1 7AC      0.352800
     33 HN2A        0.1130    2.3920    1.7600 hn        1 7AC      0.352800
     34 C1          3.7870    2.1000   -0.2880 c3        1 7AC      0.022600
@<TRIPOS>BOND
     1    1    2 ar  
     2    1    8 ar  
     3    1   11 1   
     4    2    3 ar  
     5    2   21 1   
     6    3    4 1   
     7    3    5 ar  
     8    4   12 3   
     9    5   13 1   
    10    5   18 ar  
    11    6   14 ar  
    12    6   15 ar  
    13    6   22 1   
    14    7   15 ar  
    15    7   16 ar  
    16    7   23 1   
    17    8    9 1   
    18    8   18 ar  
    19    9   10 1   
    20    9   34 1   
    21   10   11 2   
    22   10   27 1   
    23   13   14 ar  
    24   13   16 ar  
    25   14   28 1   
    26   15   29 1   
    27   16   17 1   
    28   18   19 1   
    29   19   20 1   
    30   19   30 1   
    31   19   31 1   
    32   20   32 1   
    33   20   33 1   
    34   24   34 1   
    35   25   34 1   
    36   26   34 1   
@<TRIPOS>SUBSTRUCTURE
     1 7AC         1 TEMP              0 ****  ****    0 ROOT
