@<TRIPOS>MOLECULE
7AC
   34    26     1     0     0
SMALL
bcc


@<TRIPOS>ATOM
      1 C5         -0.7210    0.3510   -2.4900 c1        1 7AC     -0.035000
      2 C6          0.6980    0.3160   -2.5150 c1        1 7AC     -0.026000
      3 C7          1.4110    0.1920   -1.3300 c1        1 7AC     -0.022000
      4 C8          2.8040    0.2300   -1.9390 c1        1 7AC     -0.090000
      5 C10         0.7380    0.1020   -0.1220 c1        1 7AC      0.008000
      6 C13         3.3020    0.3640    2.5200 c1        1 7AC     -0.120250
      7 C15         2.8690   -1.9620    2.0710 c1        1 7AC     -0.120250
      8 C21        -1.3840    0.2630   -1.3010 c1        1 7AC     -0.035000
      9 C1         -4.1000    0.1020   -1.1630 c3        1 7AC     -0.076000
     10 N2         -2.7260    0.3000   -1.5620 n2        1 7AC     -0.187000
     11 C3         -2.8900    0.4110   -2.9090 c1        1 7AC     -0.033000
     12 N4         -1.6520    0.4430   -3.4840 n1        1 7AC     -0.131000
     13 N9          3.8510    0.2580   -2.3970 n1        1 7AC     -0.041000
     14 C11         1.7380   -0.2610    0.8000 c1        1 7AC     -0.049000
     15 C12         2.4050    0.7230    1.5240 c1        1 7AC     -0.120250
     16 C14         3.5350   -0.9790    2.7940 c1        1 7AC     -0.120250
     17 C16         1.9720   -1.6040    1.0760 c1        1 7AC     -0.046000
     18 CL17        1.1310   -2.8360    0.1790 cl        1 7AC     -0.001000
     19 C18        -0.6590    0.1370   -0.0960 c1        1 7AC     -0.062000
     20 C19        -1.3670    0.0770    1.2420 c3        1 7AC     -0.046000
     21 N20        -1.7860    1.3840    1.6150 n3        1 7AC     -0.346000
     22 H6          1.1720    0.4100   -3.3580 ha        1 7AC      0.163000
     23 H13         3.7690    1.0520    3.0270 ha        1 7AC      0.143750
     24 H15         3.0330   -2.9060    2.2640 ha        1 7AC      0.143750
     25 H1         -4.6100    0.9280   -1.3220 h1        1 7AC      0.100333
     26 H1A        -4.1340   -0.1260   -0.2070 h1        1 7AC      0.100333
     27 H1B        -4.4910   -0.6310   -1.6890 h1        1 7AC      0.100333
     28 H3         -3.7390    0.4980   -3.3750 DU        1 7AC      0.201000
     29 H12         2.2420    1.6650    1.3320 ha        1 7AC      0.143750
     30 H14         4.1680   -1.2330    3.4960 ha        1 7AC      0.143750
     31 H19        -2.1470   -0.5060    1.1710 h1        1 7AC      0.080500
     32 H19A       -0.7540   -0.2770    1.9220 h1        1 7AC      0.080500
     33 HN20       -1.1270    1.7860    2.1110 hn        1 7AC      0.148000
     34 HN2A       -2.5520    1.3280    2.1140 hn        1 7AC      0.148000
@<TRIPOS>BOND
     1    1    8 1   
     2    2    3 1   
     3    2   22 1   
     4    3    5 1   
     5    4   13 1   
     6    5   19 1   
     7    6   15 1   
     8    6   23 1   
     9    7   16 1   
    10    7   24 1   
    11    9   10 1   
    12    9   25 1   
    13    9   26 1   
    14    9   27 1   
    15   10   11 1   
    16   11   12 1   
    17   14   17 1   
    18   15   29 1   
    19   16   30 1   
    20   17   18 1   
    21   19   20 1   
    22   20   21 1   
    23   20   31 1   
    24   20   32 1   
    25   21   33 1   
    26   21   34 1   
@<TRIPOS>SUBSTRUCTURE
     1 7AC         1 TEMP              0 ****  ****    0 ROOT
