@<TRIPOS>MOLECULE
7AC
   35    37     1     0     0
SMALL
bcc


@<TRIPOS>ATOM
      1 C5          0.0540   -0.0260   -0.0680 ca        1 7AC      0.065400
      2 C6          1.4440   -0.0370   -0.0150 ca        1 7AC      0.020000
      3 C7          2.0600   -0.0300    1.2440 ca        1 7AC     -0.008000
      4 C8          3.4810   -0.0470    1.3050 cg        1 7AC      0.207800
      5 C10         1.3060   -0.0110    2.4350 cp        1 7AC      0.042000
      6 C13         3.2740    1.2810    5.3740 ca        1 7AC     -0.119000
      7 C15         2.9850   -1.1010    5.6570 ca        1 7AC     -0.110000
      8 C21        -0.7420   -0.0160    1.1600 ca        1 7AC     -0.020200
      9 N2         -2.0770   -0.0020    0.7390 na        1 7AC     -0.186300
     10 C3         -2.0420   -0.0270   -0.6860 cc        1 7AC      0.450700
     11 N4         -0.8080   -0.0280   -1.1880 nd        1 7AC     -0.521100
     12 N9          4.6430   -0.0630    1.3450 n1        1 7AC     -0.301800
     13 C11         2.0170    0.0160    3.7230 cp        1 7AC     -0.111000
     14 C12         2.5430    1.2320    4.1900 ca        1 7AC     -0.157000
     15 C14         3.4950    0.1140    6.1070 ca        1 7AC     -0.096000
     16 C16         2.2450   -1.1530    4.4680 ca        1 7AC      0.021400
     17 CL17        1.6490   -2.6510    3.9420 cl        1 7AC     -0.051400
     18 C18        -0.1030    0.0010    2.4080 ca        1 7AC     -0.189300
     19 C19        -0.8450   -0.0210    3.6950 c3        1 7AC      0.180100
     20 N20        -0.7340    1.2990    4.4050 n4        1 7AC     -0.849600
     21 H6          2.0440   -0.0530   -0.9410 ha        1 7AC      0.190000
     22 H13         3.7010    2.2370    5.7170 ha        1 7AC      0.160000
     23 H15         3.1790   -2.0270    6.2250 ha        1 7AC      0.173000
     24 H1         -4.1540   -0.1740    0.8160 h1        1 7AC      0.058700
     25 H1A        -3.2490   -1.1360    2.0750 h1        1 7AC      0.058700
     26 H1B        -3.3850    0.6900    2.2240 h1        1 7AC      0.058700
     27 H3         -2.9710   -0.0300   -1.2770 h5        1 7AC      0.094800
     28 H12         2.4280    2.1430    3.5800 ha        1 7AC      0.147000
     29 H14         4.0920    0.1480    7.0340 ha        1 7AC      0.165000
     30 H19        -0.4040   -0.8050    4.3830 hx        1 7AC      0.112700
     31 H19A       -1.9400   -0.2410    3.5580 hx        1 7AC      0.112700
     32 HN20       -1.2340    1.2660    5.2960 hn        1 7AC      0.458467
     33 HN2A       -1.1240    2.0460    3.8230 hn        1 7AC      0.458467
     34 C1         -3.2660   -0.1660    1.5050 c3        1 7AC      0.022600
     35 H203        0.2620    1.5070    4.5780 hn        1 7AC      0.458467
@<TRIPOS>BOND
     1    1    2 ar  
     2    1    8 ar  
     3    1   11 1   
     4    2    3 ar  
     5    2   21 1   
     6    3    4 1   
     7    3    5 ar  
     8    4   12 3   
     9    5   13 1   
    10    5   18 ar  
    11    6   14 ar  
    12    6   15 ar  
    13    6   22 1   
    14    7   15 ar  
    15    7   16 ar  
    16    7   23 1   
    17    8    9 1   
    18    8   18 ar  
    19    9   10 1   
    20    9   34 1   
    21   10   11 2   
    22   10   27 1   
    23   13   14 ar  
    24   13   16 ar  
    25   14   28 1   
    26   15   29 1   
    27   16   17 1   
    28   18   19 1   
    29   19   20 1   
    30   19   30 1   
    31   19   31 1   
    32   20   32 1   
    33   20   33 1   
    34   20   35 1   
    35   24   34 1   
    36   25   34 1   
    37   26   34 1   
@<TRIPOS>SUBSTRUCTURE
     1 7AC         1 TEMP              0 ****  ****    0 ROOT
