@<TRIPOS>MOLECULE
7AC
   35    37     1     0     0
SMALL
bcc


@<TRIPOS>ATOM
      1 C5         -0.0050    0.0290   -0.0490 ca        1 7AC      0.065400
      2 C6          1.3850    0.0350   -0.0120 ca        1 7AC      0.020000
      3 C7          2.0160    0.0370    1.2390 ca        1 7AC     -0.008000
      4 C8          3.4380    0.0370    1.2840 cg        1 7AC      0.207800
      5 C10         1.2760    0.0340    2.4400 cp        1 7AC      0.042000
      6 C13         3.2610    1.3210    5.3690 ca        1 7AC     -0.119000
      7 C15         3.0060   -1.0680    5.6300 ca        1 7AC     -0.110000
      8 C21        -0.7870    0.0170    1.1880 ca        1 7AC     -0.020200
      9 N2         -2.1260    0.0190    0.7820 na        1 7AC     -0.186300
     10 C3         -2.1080    0.0090   -0.6430 cc        1 7AC      0.450700
     11 N4         -0.8800    0.0290   -1.1590 nd        1 7AC     -0.521100
     12 N9          4.6000    0.0350    1.3110 n1        1 7AC     -0.301800
     13 C11         2.0020    0.0570    3.7190 cp        1 7AC     -0.111000
     14 C12         2.5170    1.2750    4.1930 ca        1 7AC     -0.157000
     15 C14         3.5060    0.1490    6.0870 ca        1 7AC     -0.096000
     16 C16         2.2520   -1.1170    4.4500 ca        1 7AC      0.021400
     17 CL17        1.6690   -2.6160    3.9140 cl        1 7AC     -0.051400
     18 C18        -0.1330    0.0290    2.4290 ca        1 7AC     -0.189300
     19 C19        -0.8600   -0.0150    3.7240 c3        1 7AC      0.180100
     20 N20        -0.7580    1.2980    4.4460 n4        1 7AC     -0.849600
     21 H6          1.9750    0.0360   -0.9450 ha        1 7AC      0.190000
     22 H13         3.6810    2.2790    5.7170 ha        1 7AC      0.160000
     23 H15         3.2170   -1.9970    6.1860 ha        1 7AC      0.173000
     24 H1         -3.4250    0.6790    2.2900 h1        1 7AC      0.058700
     25 H1A        -4.2000   -0.1790    0.8810 h1        1 7AC      0.058700
     26 H1B        -3.2690   -1.1430    2.1190 h1        1 7AC      0.058700
     27 H3         -3.0430   -0.0000   -1.2230 h5        1 7AC      0.094800
     28 H12         2.3840    2.1900    3.5930 ha        1 7AC      0.147000
     29 H14         4.1130    0.1810    7.0070 ha        1 7AC      0.165000
     30 H19        -1.9540   -0.2480    3.5970 hx        1 7AC      0.112700
     31 H19A       -0.4010   -0.8010    4.3990 hx        1 7AC      0.112700
     32 HN20       -1.2460    1.2500    5.3430 hn        1 7AC      0.458467
     33 HN2A        0.2370    1.5170    4.6110 hn        1 7AC      0.458467
     34 C1         -3.3040   -0.1680    1.5610 c3        1 7AC      0.022600
     35 H203       -1.1640    2.0460    3.8770 hn        1 7AC      0.458467
@<TRIPOS>BOND
     1    1    2 ar  
     2    1    8 ar  
     3    1   11 1   
     4    2    3 ar  
     5    2   21 1   
     6    3    4 1   
     7    3    5 ar  
     8    4   12 3   
     9    5   13 1   
    10    5   18 ar  
    11    6   14 ar  
    12    6   15 ar  
    13    6   22 1   
    14    7   15 ar  
    15    7   16 ar  
    16    7   23 1   
    17    8    9 1   
    18    8   18 ar  
    19    9   10 1   
    20    9   34 1   
    21   10   11 2   
    22   10   27 1   
    23   13   14 ar  
    24   13   16 ar  
    25   14   28 1   
    26   15   29 1   
    27   16   17 1   
    28   18   19 1   
    29   19   20 1   
    30   19   30 1   
    31   19   31 1   
    32   20   32 1   
    33   20   33 1   
    34   20   35 1   
    35   24   34 1   
    36   25   34 1   
    37   26   34 1   
@<TRIPOS>SUBSTRUCTURE
     1 7AC         1 TEMP              0 ****  ****    0 ROOT
