@<TRIPOS>MOLECULE
7AD
   46    48     1     0     0
SMALL
bcc


@<TRIPOS>ATOM
      1 C1         -1.3280   -1.1520   -1.0730 ca        1 7AD     -0.078000
      2 C2         -0.4370   -0.9580   -0.0550 ca        1 7AD     -0.161000
      3 C3          0.5890   -1.9070    0.1880 ca        1 7AD     -0.047000
      4 C4          0.7180   -3.0140   -0.6080 ca        1 7AD     -0.202900
      5 C5         -0.7480   -5.7900   -4.2650 ca        1 7AD     -0.191300
      6 C6         -1.6020   -6.0730   -5.2890 ca        1 7AD     -0.102000
      7 C7         -2.6830   -5.2020   -5.5910 ca        1 7AD     -0.150000
      8 C8         -2.8820   -4.0680   -4.8550 ca        1 7AD     -0.093000
      9 C9         -2.1920   -2.5520   -2.9700 ca        1 7AD      0.265600
     10 N10        -0.0460   -4.3670   -2.4560 nb        1 7AD     -0.736000
     11 C11        -1.2570   -2.3010   -1.9140 ca        1 7AD     -0.235300
     12 C12        -0.2020   -3.2560   -1.7000 ca        1 7AD      0.485600
     13 C13        -2.0210   -3.7270   -3.7700 ca        1 7AD     -0.232300
     14 C14        -0.9230   -4.5990   -3.4620 ca        1 7AD      0.472600
     15 N1         -3.2060   -1.6650   -3.2360 nh        1 7AD     -0.850200
     16 C10         1.8020   -3.9930   -0.2790 c         1 7AD      0.676700
     17 O1          1.9190   -4.4390    0.8810 o         1 7AD     -0.609100
     18 N2          2.7310   -4.2780   -1.2660 n         1 7AD     -0.534900
     19 C15         3.7180   -5.3080   -1.0830 c3        1 7AD      0.079000
     20 C16         3.3610   -6.6870   -1.6400 c3        1 7AD     -0.109400
     21 C17         3.1980   -6.6440   -3.1560 c3        1 7AD      0.162800
     22 N3          3.2060   -7.9560   -3.7940 n3        1 7AD     -0.736600
     23 C18         3.1880   -7.8520   -5.2360 c3        1 7AD      0.155600
     24 C19         2.1900   -8.8490   -3.2870 c3        1 7AD      0.155600
     25 H1         -2.1050   -0.3890   -1.2350 ha        1 7AD      0.121000
     26 H2         -0.5010   -0.0700    0.5910 ha        1 7AD      0.140000
     27 H3          1.2800   -1.7500    1.0330 ha        1 7AD      0.155000
     28 H5          0.0930   -6.4620   -4.0260 ha        1 7AD      0.151000
     29 H6         -1.4680   -6.9810   -5.8970 ha        1 7AD      0.136000
     30 H7         -3.3520   -5.4570   -6.4260 ha        1 7AD      0.135000
     31 H8         -3.7250   -3.4130   -5.1250 ha        1 7AD      0.119000
     32 HN11       -3.4210   -0.9630   -2.5720 hn        1 7AD      0.428300
     33 HN12       -3.9340   -1.9350   -3.8490 hn        1 7AD      0.428300
     34 HN2         2.4770   -4.0860   -2.2090 hn        1 7AD      0.312500
     35 H151        3.9180   -5.4180    0.0230 h1        1 7AD      0.062200
     36 H152        4.6660   -4.9500   -1.5800 h1        1 7AD      0.062200
     37 H161        2.4180   -7.0570   -1.1620 hc        1 7AD      0.059700
     38 H162        4.1870   -7.3910   -1.3570 hc        1 7AD      0.059700
     39 H171        4.0590   -6.0610   -3.5930 h1        1 7AD      0.032200
     40 H172        2.2470   -6.0810   -3.4000 h1        1 7AD      0.032200
     41 H181        4.0640   -7.2360   -5.5700 h1        1 7AD      0.030200
     42 H182        2.2480   -7.3790   -5.6360 h1        1 7AD      0.030200
     43 H183        3.2850   -8.8790   -5.6750 h1        1 7AD      0.030200
     44 H191        2.2560   -9.8290   -3.8280 h1        1 7AD      0.030200
     45 H192        1.1450   -8.4460   -3.4050 h1        1 7AD      0.030200
     46 H193        2.3790   -9.0310   -2.1960 h1        1 7AD      0.030200
@<TRIPOS>BOND
     1    1    2 ar  
     2    1   11 ar  
     3    1   25 1   
     4    2    3 ar  
     5    2   26 1   
     6    3    4 ar  
     7    3   27 1   
     8    4   12 ar  
     9    4   16 1   
    10    5    6 ar  
    11    5   14 ar  
    12    5   28 1   
    13    6    7 ar  
    14    6   29 1   
    15    7    8 ar  
    16    7   30 1   
    17    8   13 ar  
    18    8   31 1   
    19    9   11 ar  
    20    9   13 ar  
    21    9   15 1   
    22   10   12 ar  
    23   10   14 ar  
    24   11   12 ar  
    25   13   14 ar  
    26   15   32 1   
    27   15   33 1   
    28   16   17 2   
    29   16   18 1   
    30   18   19 1   
    31   18   34 1   
    32   19   20 1   
    33   19   35 1   
    34   19   36 1   
    35   20   21 1   
    36   20   37 1   
    37   20   38 1   
    38   21   22 1   
    39   21   39 1   
    40   21   40 1   
    41   22   23 1   
    42   22   24 1   
    43   23   41 1   
    44   23   42 1   
    45   23   43 1   
    46   24   44 1   
    47   24   45 1   
    48   24   46 1   
@<TRIPOS>SUBSTRUCTURE
     1 7AD         1 TEMP              0 ****  ****    0 ROOT
