@<TRIPOS>MOLECULE
7AD
   48    50     1     0     0
SMALL
bcc


@<TRIPOS>ATOM
      1 C1          0.0270    1.4860    0.5700 ca        1 7AD      0.029000
      2 C2          1.4000    1.5730    0.7030 ca        1 7AD     -0.201000
      3 C3          2.0700    0.7540    1.6150 ca        1 7AD      0.056000
      4 C4          1.3710   -0.1690    2.3960 ca        1 7AD     -0.339900
      5 C5         -2.7720   -2.1730    3.8450 ca        1 7AD     -0.244300
      6 C6         -4.1340   -2.3200    3.7780 ca        1 7AD     -0.043000
      7 C7         -4.8960   -1.5400    2.8790 ca        1 7AD     -0.137000
      8 C8         -4.2750   -0.6310    2.0560 ca        1 7AD     -0.067000
      9 C9         -2.1740    0.4820    1.2280 ca        1 7AD      0.342600
     10 N10        -0.7320   -1.1290    3.0970 nb        1 7AD     -0.893000
     11 C11        -0.7370    0.5860    1.3460 ca        1 7AD     -0.284300
     12 C12        -0.0720   -0.2690    2.2990 ca        1 7AD      0.545600
     13 C13        -2.8650   -0.4520    2.0880 ca        1 7AD     -0.244300
     14 C14        -2.0920   -1.2340    3.0020 ca        1 7AD      0.512600
     15 N1         -2.8550    1.2360    0.3390 nv        1 7AD     -0.802200
     16 C10         2.1790   -0.9640    3.3070 c         1 7AD      0.583700
     17 O1          3.2980   -0.7000    3.7410 o         1 7AD     -0.480100
     18 N2          1.6080   -2.2950    3.7650 ny        1 7AD     -0.697800
     19 C15         2.3020   -2.9050    4.9240 c3        1 7AD      0.116800
     20 C16         2.2590   -2.0990    6.2180 c3        1 7AD     -0.129400
     21 C17         0.9050   -2.1930    6.9120 c3        1 7AD      0.094800
     22 N3          0.9130   -1.6340    8.3050 nx        1 7AD     -0.677400
     23 C18        -0.2850   -2.0970    9.0590 c3        1 7AD      0.078600
     24 C19         0.9830   -0.1470    8.3010 c3        1 7AD      0.078600
     25 H1         -0.4500    2.1520   -0.1700 ha        1 7AD      0.152000
     26 H2          1.9760    2.2870    0.0900 ha        1 7AD      0.181000
     27 H3          3.1690    0.8350    1.7150 ha        1 7AD      0.175000
     28 H5         -2.1840   -2.7900    4.5400 ha        1 7AD      0.122000
     29 H6         -4.6520   -3.0510    4.4210 ha        1 7AD      0.158000
     30 H7         -5.9900   -1.6730    2.8430 ha        1 7AD      0.170000
     31 H8         -4.9070   -0.0460    1.3690 ha        1 7AD      0.144000
     32 HN11       -3.8430    1.1610    0.2510 hn        1 7AD      0.463800
     33 HN12       -2.3930    1.8720   -0.2670 hn        1 7AD      0.463800
     34 HN2         1.6770   -2.9410    2.9680 hn        1 7AD      0.486300
     35 H151        1.8560   -3.9290    5.0860 hx        1 7AD      0.119200
     36 H152        3.3930   -3.0280    4.6410 hx        1 7AD      0.119200
     37 H161        3.0670   -2.5260    6.8770 hc        1 7AD      0.103700
     38 H162        2.5320   -1.0260    6.0150 hc        1 7AD      0.103700
     39 H171        0.1190   -1.6350    6.3250 hx        1 7AD      0.107700
     40 H172        0.5940   -3.2770    6.9870 hx        1 7AD      0.107700
     41 H181       -1.2160   -1.7570    8.5330 hx        1 7AD      0.113533
     42 H182       -0.2600   -1.6590   10.0950 hx        1 7AD      0.113533
     43 H183       -0.2750   -3.2190    9.1300 hx        1 7AD      0.113533
     44 H191        1.9050    0.1840    7.7520 hx        1 7AD      0.113533
     45 H192        1.0290    0.2220    9.3630 hx        1 7AD      0.113533
     46 H193        0.0700    0.2730    7.8010 hx        1 7AD      0.113533
     47 H22         0.5820   -2.1420    3.9530 hn        1 7AD      0.486300
     48 H31         1.7520   -1.9910    8.7870 hn        1 7AD      0.458800
@<TRIPOS>BOND
     1    1    2 ar  
     2    1   11 ar  
     3    1   25 1   
     4    2    3 ar  
     5    2   26 1   
     6    3    4 ar  
     7    3   27 1   
     8    4   12 ar  
     9    4   16 1   
    10    5    6 ar  
    11    5   14 ar  
    12    5   28 1   
    13    6    7 ar  
    14    6   29 1   
    15    7    8 ar  
    16    7   30 1   
    17    8   13 ar  
    18    8   31 1   
    19    9   11 ar  
    20    9   13 ar  
    21    9   15 1   
    22   10   12 ar  
    23   10   14 ar  
    24   11   12 ar  
    25   13   14 ar  
    26   15   32 1   
    27   15   33 1   
    28   16   17 2   
    29   16   18 1   
    30   18   19 1   
    31   18   34 1   
    32   18   47 1   
    33   19   20 1   
    34   19   35 1   
    35   19   36 1   
    36   20   21 1   
    37   20   37 1   
    38   20   38 1   
    39   21   22 1   
    40   21   39 1   
    41   21   40 1   
    42   22   23 1   
    43   22   24 1   
    44   22   48 1   
    45   23   41 1   
    46   23   42 1   
    47   23   43 1   
    48   24   44 1   
    49   24   45 1   
    50   24   46 1   
@<TRIPOS>SUBSTRUCTURE
     1 7AD         1 TEMP              0 ****  ****    0 ROOT
