@<TRIPOS>MOLECULE
7AD
   49    51     1     0     0
SMALL
bcc


@<TRIPOS>ATOM
      1 C1          0.4490    0.7770   -0.1150 ca        1 7AD     -0.083000
      2 C2          1.6990    0.5210    0.3770 ca        1 7AD     -0.091000
      3 C3          1.8650    0.0340    1.6990 ca        1 7AD      0.028000
      4 C4          0.7680   -0.2410    2.4930 ca        1 7AD     -0.257900
      5 C5         -4.0140   -0.3010    3.2230 ca        1 7AD     -0.182300
      6 C6         -5.2900   -0.0490    2.8130 ca        1 7AD     -0.060000
      7 C7         -5.5450    0.5000    1.5200 ca        1 7AD     -0.016000
      8 C8         -4.5120    0.7950    0.6730 ca        1 7AD     -0.182000
      9 C9         -2.0370    0.8600    0.2490 ca        1 7AD      0.012600
     10 N10        -1.6380   -0.2710    2.7960 nb        1 7AD     -0.717000
     11 C11        -0.7190    0.5590    0.6800 ca        1 7AD     -0.120300
     12 C12        -0.5750    0.0010    2.0030 ca        1 7AD      0.450600
     13 C13        -3.1550    0.5660    1.0560 ca        1 7AD     -0.084300
     14 C14        -2.8880   -0.0110    2.3630 ca        1 7AD      0.467600
     15 N1         -2.2460    1.4960   -1.0540 n4        1 7AD     -0.714000
     16 C10         1.0630   -0.6850    3.8620 c         1 7AD      0.587700
     17 O1          2.0170   -0.3430    4.5490 o         1 7AD     -0.425100
     18 N2          0.1430   -1.7110    4.5040 n4        1 7AD     -0.664800
     19 C15         0.8300   -2.6170    5.4740 c3        1 7AD      0.113800
     20 C16         1.0620   -2.0080    6.8580 c3        1 7AD     -0.131400
     21 C17         1.7780   -3.0480    7.7230 c3        1 7AD      0.104800
     22 N3          2.2010   -2.5380    9.0670 n4        1 7AD     -0.677400
     23 C18         3.2430   -3.4350    9.6540 c3        1 7AD      0.078600
     24 C19         1.0480   -2.4120   10.0000 c3        1 7AD      0.078600
     25 H1          0.3690    1.1460   -1.1520 ha        1 7AD      0.156000
     26 H2          2.6020    0.6950   -0.2410 ha        1 7AD      0.205000
     27 H3          2.8940   -0.1170    2.0820 ha        1 7AD      0.193000
     28 H5         -3.8210   -0.7270    4.2210 ha        1 7AD      0.164000
     29 H6         -6.1510   -0.2670    3.4730 ha        1 7AD      0.194000
     30 H7         -6.5940    0.6790    1.2180 ha        1 7AD      0.196000
     31 H8         -4.7600    1.1980   -0.3220 ha        1 7AD      0.147000
     32 HN11       -2.3870    0.7740   -1.7760 hn        1 7AD      0.481800
     33 HN12       -1.4370    2.0770   -1.3070 hn        1 7AD      0.481800
     34 HN2        -0.2740   -2.2870    3.7590 hn        1 7AD      0.478800
     35 H151        0.1900   -3.5440    5.5730 hx        1 7AD      0.119700
     36 H152        1.8220   -2.9110    5.0190 hx        1 7AD      0.119700
     37 H161        1.6880   -1.0770    6.7640 hc        1 7AD      0.095200
     38 H162        0.0820   -1.7230    7.3260 hc        1 7AD      0.095200
     39 H171        1.1080   -3.9410    7.8910 hx        1 7AD      0.117200
     40 H172        2.7090   -3.4000    7.1860 hx        1 7AD      0.117200
     41 H181        4.1490   -3.4460    8.9900 hx        1 7AD      0.118033
     42 H182        3.5290   -3.0440   10.6700 hx        1 7AD      0.118033
     43 H183        2.8320   -4.4750    9.7570 hx        1 7AD      0.118033
     44 H191        0.2740   -1.7340    9.5530 hx        1 7AD      0.118033
     45 H192        0.6030   -3.4250   10.1950 hx        1 7AD      0.118033
     46 H193        1.4080   -1.9760   10.9740 hx        1 7AD      0.118033
     47 H13        -3.0800    2.1020   -1.0190 hn        1 7AD      0.481800
     48 H22        -0.6180   -1.2030    4.9780 hn        1 7AD      0.478800
     49 H31         2.6190   -1.6040    8.9440 hn        1 7AD      0.456800
@<TRIPOS>BOND
     1    1    2 ar  
     2    1   11 ar  
     3    1   25 1   
     4    2    3 ar  
     5    2   26 1   
     6    3    4 ar  
     7    3   27 1   
     8    4   12 ar  
     9    4   16 1   
    10    5    6 ar  
    11    5   14 ar  
    12    5   28 1   
    13    6    7 ar  
    14    6   29 1   
    15    7    8 ar  
    16    7   30 1   
    17    8   13 ar  
    18    8   31 1   
    19    9   11 ar  
    20    9   13 ar  
    21    9   15 1   
    22   10   12 ar  
    23   10   14 ar  
    24   11   12 ar  
    25   13   14 ar  
    26   15   32 1   
    27   15   33 1   
    28   15   47 1   
    29   16   17 2   
    30   16   18 1   
    31   18   19 1   
    32   18   34 1   
    33   18   48 1   
    34   19   20 1   
    35   19   35 1   
    36   19   36 1   
    37   20   21 1   
    38   20   37 1   
    39   20   38 1   
    40   21   22 1   
    41   21   39 1   
    42   21   40 1   
    43   22   23 1   
    44   22   24 1   
    45   22   49 1   
    46   23   41 1   
    47   23   42 1   
    48   23   43 1   
    49   24   44 1   
    50   24   45 1   
    51   24   46 1   
@<TRIPOS>SUBSTRUCTURE
     1 7AD         1 TEMP              0 ****  ****    0 ROOT
