@<TRIPOS>MOLECULE
7AD
   46    40     1     0     0
SMALL
bcc


@<TRIPOS>ATOM
      1 C1         -1.7930    0.7590   -3.4600 c1        1 7AD     -0.122750
      2 C2         -0.3850    0.7810   -3.4450 c1        1 7AD     -0.122750
      3 C3          0.3010    0.7730   -2.2260 c1        1 7AD     -0.049000
      4 C4         -0.4190    0.7440   -1.0090 c1        1 7AD     -0.116000
      5 C5         -4.6340    0.7470    1.3620 c1        1 7AD     -0.122000
      6 C6         -6.0320    0.7270    1.3480 c1        1 7AD     -0.122750
      7 C7         -6.7260    0.7340    0.1240 c1        1 7AD     -0.122750
      8 C8         -6.0220    0.7620   -1.0750 c1        1 7AD     -0.095000
      9 C9         -3.8800    0.7600   -2.2730 c1        1 7AD      0.182000
     10 N10        -2.5160    0.7450    0.1540 n1        1 7AD     -0.206000
     11 C11        -2.5070    0.7300   -2.2570 c1        1 7AD     -0.039500
     12 C12        -1.8170    0.7230   -1.0270 c1        1 7AD     -0.039500
     13 C13        -4.5950    0.7830   -1.0640 c1        1 7AD     -0.165000
     14 C14        -3.9130    0.7750    0.1410 c1        1 7AD      0.078000
     15 N1         -4.6780    0.9160   -3.4850 n3        1 7AD     -0.358000
     16 C10        -0.0230   -0.0040    0.2830 c2        1 7AD      0.355000
     17 O1         -0.7580    0.0630    1.2820 o         1 7AD     -0.376000
     18 N2          1.0340   -0.9820    0.2410 n         1 7AD     -0.353000
     19 C15         2.3870   -0.5850    0.4520 c3        1 7AD     -0.037000
     20 C16         3.0720   -1.5920    1.3650 c3        1 7AD     -0.169000
     21 C17         4.6320   -1.4470    1.2440 c3        1 7AD     -0.067000
     22 N3          5.1870   -1.0070    2.5450 n3        1 7AD     -0.267000
     23 C18         5.2890    0.4320    2.5610 c3        1 7AD     -0.121000
     24 C19         6.4880   -1.5790    2.7290 c3        1 7AD     -0.121000
     25 H1         -2.2610    0.7640   -4.2910 ha        1 7AD      0.133000
     26 H2          0.1230    0.8030   -4.3030 ha        1 7AD      0.133000
     27 H3          1.2710    0.7890   -2.2150 ha        1 7AD      0.154000
     28 H5         -4.1370    0.7410    2.2450 ha        1 7AD      0.152000
     29 H6         -6.5220    0.7080    2.1790 ha        1 7AD      0.133000
     30 H7         -7.7470    0.7200    0.1160 ha        1 7AD      0.133000
     31 H8         -6.5010    0.7670   -1.9210 ha        1 7AD      0.119000
     32 HN11       -4.4410    0.4600   -4.2610 hn        1 7AD      0.222500
     33 HN12       -5.3810    1.5020   -3.4960 hn        1 7AD      0.222500
     34 HN2         0.8460   -1.8260    0.0490 hn        1 7AD      0.229000
     35 H151        2.8530   -0.5510   -0.4050 h1        1 7AD      0.094000
     36 H152        2.4050    0.2640    0.8530 h1        1 7AD      0.094000
     37 H161        2.8100   -1.4310    2.2640 hc        1 7AD      0.093000
     38 H162        2.8030   -2.5150    1.1010 hc        1 7AD      0.093000
     39 H171        4.8440   -0.7890    0.5630 h1        1 7AD      0.073500
     40 H172        5.0210   -2.3060    0.9990 h1        1 7AD      0.073500
     41 H181        4.3760    0.8290    2.5550 h1        1 7AD      0.070500
     42 H182        5.7900    0.7320    3.4120 h1        1 7AD      0.070500
     43 H183        5.7990    0.7430    1.7420 h1        1 7AD      0.070500
     44 H191        6.3950   -2.5580    2.9960 h1        1 7AD      0.070500
     45 H192        6.9600   -1.0940    3.4330 h1        1 7AD      0.070500
     46 H193        7.0030   -1.5120    1.8750 h1        1 7AD      0.070500
@<TRIPOS>BOND
     1    1    2 1   
     2    1   25 1   
     3    2   26 1   
     4    3    4 1   
     5    3   27 1   
     6    4   16 1   
     7    5   14 1   
     8    5   28 1   
     9    6    7 1   
    10    6   29 1   
    11    7   30 1   
    12    8   13 1   
    13    8   31 1   
    14    9   13 1   
    15    9   15 1   
    16   10   14 1   
    17   11   12 1   
    18   15   32 1   
    19   15   33 1   
    20   16   17 1   
    21   16   18 1   
    22   18   19 1   
    23   18   34 1   
    24   19   20 1   
    25   19   35 1   
    26   19   36 1   
    27   20   21 1   
    28   20   37 1   
    29   20   38 1   
    30   21   22 1   
    31   21   39 1   
    32   21   40 1   
    33   22   23 1   
    34   22   24 1   
    35   23   41 1   
    36   23   42 1   
    37   23   43 1   
    38   24   44 1   
    39   24   45 1   
    40   24   46 1   
@<TRIPOS>SUBSTRUCTURE
     1 7AD         1 TEMP              0 ****  ****    0 ROOT
