@<TRIPOS>MOLECULE
7AD
   48    50     1     0     0
SMALL
bcc


@<TRIPOS>ATOM
      1 C1          0.3750    1.3460    0.2190 ca        1 7AD      0.035000
      2 C2          1.6820    1.3840    0.6690 ca        1 7AD     -0.207000
      3 C3          2.0640    0.6230    1.7760 ca        1 7AD      0.056000
      4 C4          1.1450   -0.1970    2.4360 ca        1 7AD     -0.339900
      5 C5         -3.3460   -1.8610    3.0130 ca        1 7AD     -0.233300
      6 C6         -4.6680   -1.9310    2.6490 ca        1 7AD     -0.044000
      7 C7         -5.1470   -1.1960    1.5410 ca        1 7AD     -0.134000
      8 C8         -4.2910   -0.4050    0.8140 ca        1 7AD     -0.072000
      9 C9         -1.9800    0.5080    0.4090 ca        1 7AD      0.342600
     10 N10        -1.1170   -1.0090    2.6700 nb        1 7AD     -0.881000
     11 C11        -0.6050    0.5540    0.8550 ca        1 7AD     -0.286300
     12 C12        -0.2370   -0.2470    1.9990 ca        1 7AD      0.546600
     13 C13        -2.9140   -0.3060    1.1530 ca        1 7AD     -0.242300
     14 C14        -2.4270   -1.0450    2.2760 ca        1 7AD      0.513600
     15 N1         -2.3840    1.2060   -0.6740 nh        1 7AD     -0.804200
     16 C10         1.6600   -0.9250    3.5790 c         1 7AD      0.590700
     17 O1          2.6720   -0.6810    4.2370 o         1 7AD     -0.506100
     18 N2          0.8960   -2.1600    4.0270 n4        1 7AD     -0.689800
     19 C15         1.3040   -2.6920    5.3490 c3        1 7AD      0.118800
     20 C16         0.9870   -1.7570    6.5170 c3        1 7AD     -0.126400
     21 C17         1.5650   -2.3700    7.7900 c3        1 7AD      0.106800
     22 N3          1.5220   -1.4500    8.9740 n4        1 7AD     -0.678400
     23 C18         2.4410   -1.9390   10.0420 c3        1 7AD      0.079600
     24 C19         0.1410   -1.3010    9.5060 c3        1 7AD      0.079600
     25 H1          0.1280    1.9670   -0.6600 ha        1 7AD      0.151000
     26 H2          2.4290    2.0140    0.1580 ha        1 7AD      0.179000
     27 H3          3.1110    0.6680    2.1320 ha        1 7AD      0.171000
     28 H5         -2.9790   -2.4360    3.8760 ha        1 7AD      0.132000
     29 H6         -5.3710   -2.5630    3.2170 ha        1 7AD      0.160000
     30 H7         -6.2130   -1.2660    1.2690 ha        1 7AD      0.168000
     31 H8         -4.7080    0.1520   -0.0400 ha        1 7AD      0.142000
     32 HN11       -1.7520    1.7640   -1.1990 hn        1 7AD      0.462800
     33 HN12       -3.3280    1.1740   -0.9830 hn        1 7AD      0.462800
     34 HN2        -0.1310   -1.9150    3.9960 hn        1 7AD      0.490800
     35 H151        2.4190   -2.8800    5.3140 hx        1 7AD      0.109700
     36 H152        0.7740   -3.6780    5.4970 hx        1 7AD      0.109700
     37 H161        1.4450   -0.7470    6.3230 hc        1 7AD      0.090700
     38 H162       -0.1240   -1.6220    6.6140 hc        1 7AD      0.090700
     39 H171        2.6480   -2.6440    7.6160 hx        1 7AD      0.114200
     40 H172        1.0000   -3.3080    8.0620 hx        1 7AD      0.114200
     41 H181        2.1350   -2.9730   10.3570 hx        1 7AD      0.113700
     42 H182        3.4950   -1.9560    9.6530 hx        1 7AD      0.113700
     43 H183        2.3790   -1.2450   10.9250 hx        1 7AD      0.113700
     44 H191       -0.2310   -2.2930    9.8780 hx        1 7AD      0.113700
     45 H192        0.1500   -0.5670   10.3580 hx        1 7AD      0.113700
     46 H193       -0.5340   -0.9220    8.6940 hx        1 7AD      0.113700
     47 H22         1.0520   -2.8880    3.3190 hn        1 7AD      0.490800
     48 H31         1.8510   -0.5210    8.6700 hn        1 7AD      0.456800
@<TRIPOS>BOND
     1    1    2 ar  
     2    1   11 ar  
     3    1   25 1   
     4    2    3 ar  
     5    2   26 1   
     6    3    4 ar  
     7    3   27 1   
     8    4   12 ar  
     9    4   16 1   
    10    5    6 ar  
    11    5   14 ar  
    12    5   28 1   
    13    6    7 ar  
    14    6   29 1   
    15    7    8 ar  
    16    7   30 1   
    17    8   13 ar  
    18    8   31 1   
    19    9   11 ar  
    20    9   13 ar  
    21    9   15 1   
    22   10   12 ar  
    23   10   14 ar  
    24   11   12 ar  
    25   13   14 ar  
    26   15   32 1   
    27   15   33 1   
    28   16   17 2   
    29   16   18 1   
    30   18   19 1   
    31   18   34 1   
    32   18   47 1   
    33   19   20 1   
    34   19   35 1   
    35   19   36 1   
    36   20   21 1   
    37   20   37 1   
    38   20   38 1   
    39   21   22 1   
    40   21   39 1   
    41   21   40 1   
    42   22   23 1   
    43   22   24 1   
    44   22   48 1   
    45   23   41 1   
    46   23   42 1   
    47   23   43 1   
    48   24   44 1   
    49   24   45 1   
    50   24   46 1   
@<TRIPOS>SUBSTRUCTURE
     1 7AD         1 TEMP              0 ****  ****    0 ROOT
