@<TRIPOS>MOLECULE
7AH
   48    51     1     0     0
SMALL
bcc


@<TRIPOS>ATOM
      1 O          -0.2800   -2.8240   -0.1910 o         1 7AH     -0.595100
      2 C5          0.5380   -1.9030   -0.0100 c         1 7AH      0.664100
      3 C4          0.9690   -1.5440    1.4090 c3        1 7AH     -0.114100
      4 C3          1.0530   -0.0830    1.6600 ca        1 7AH     -0.111300
      5 C2         -0.0910    0.6350    2.0300 ca        1 7AH     -0.101000
      6 C1         -0.0220    2.0010    2.2840 ca        1 7AH     -0.163000
      7 C19         2.2790    0.5860    1.5520 ca        1 7AH     -0.101000
      8 C20         2.3690    1.9510    1.8040 ca        1 7AH     -0.163000
      9 C           1.2130    2.6650    2.1710 ca        1 7AH      0.130900
     10 F           1.2910    3.9940    2.4180 f         1 7AH     -0.136900
     11 N           1.1450   -1.2010   -1.0370 ns        1 7AH     -0.463100
     12 C6          0.8630   -1.3080   -2.4140 ca        1 7AH      0.037600
     13 C18         1.2170   -0.2340   -3.2520 ca        1 7AH     -0.140000
     14 C17         0.9870   -0.3340   -4.6210 ca        1 7AH     -0.063800
     15 C9          0.3840   -1.5300   -5.1640 ca        1 7AH     -0.065200
     16 C8          0.0290   -2.5950   -4.3250 ca        1 7AH     -0.124000
     17 C7          0.2720   -2.4780   -2.9680 ca        1 7AH     -0.126000
     18 C11         1.2230    0.5530   -5.7440 cc        1 7AH     -0.142400
     19 C10         0.7710   -0.1120   -6.8860 cd        1 7AH     -0.094100
     20 N1          0.2680   -1.3680   -6.5470 na        1 7AH     -0.192400
     21 C12         1.8240    1.8980   -5.6800 c3        1 7AH      0.010500
     22 C16         3.1140    1.9670   -6.4920 c3        1 7AH     -0.072400
     23 C15         3.7030    3.3760   -6.4600 c3        1 7AH      0.162300
     24 N2          2.7600    4.4010   -6.8620 n7        1 7AH     -0.820200
     25 C14         1.4980    4.3460   -6.1520 c3        1 7AH      0.162300
     26 C13         0.8510    2.9630   -6.1760 c3        1 7AH     -0.072400
     27 H41C        1.9640   -2.0340    1.5950 hc        1 7AH      0.085700
     28 H42C        0.2230   -2.0140    2.1070 hc        1 7AH      0.085700
     29 H           1.6940   -0.4100   -0.7750 hn        1 7AH      0.317500
     30 H2         -1.0580    0.1140    2.1190 ha        1 7AH      0.143500
     31 H19         3.1850    0.0260    1.2740 ha        1 7AH      0.143500
     32 H1         -0.9200    2.5660    2.5730 ha        1 7AH      0.153000
     33 H20         3.3320    2.4770    1.7230 ha        1 7AH      0.153000
     34 H18         1.6730    0.6830   -2.8500 ha        1 7AH      0.132000
     35 H7         -0.0110   -3.3120   -2.3040 ha        1 7AH      0.169000
     36 H8         -0.4320   -3.5060   -4.7300 ha        1 7AH      0.136000
     37 HA         -0.1250   -2.0230   -7.1680 hn        1 7AH      0.299700
     38 H10         0.7750    0.2270   -7.9240 h4        1 7AH      0.168000
     39 H12         2.0750    2.1260   -4.6030 hc        1 7AH      0.049700
     40 H161        2.9040    1.6640   -7.5500 hc        1 7AH      0.048950
     41 H162        3.8670    1.2530   -6.0720 hc        1 7AH      0.048950
     42 H131        0.5220    2.7120   -7.2170 hc        1 7AH      0.048950
     43 H132       -0.0590    2.9810   -5.5230 hc        1 7AH      0.048950
     44 H151        4.1110    3.5610   -5.4210 h1        1 7AH      0.025700
     45 H152        4.5720    3.4230   -7.1760 h1        1 7AH      0.025700
     46 HB          3.1750    5.3070   -6.7500 hn        1 7AH      0.359800
     47 H141        0.8040    5.0810   -6.6500 h1        1 7AH      0.025700
     48 H142        1.6070    4.6630   -5.0720 h1        1 7AH      0.025700
@<TRIPOS>BOND
     1    1    2 2   
     2    2    3 1   
     3    2   11 1   
     4    3    4 1   
     5    3   27 1   
     6    3   28 1   
     7    4    5 ar  
     8    4    7 ar  
     9    5    6 ar  
    10    5   30 1   
    11    6    9 ar  
    12    6   32 1   
    13    7    8 ar  
    14    7   31 1   
    15    8    9 ar  
    16    8   33 1   
    17    9   10 1   
    18   11   12 1   
    19   11   29 1   
    20   12   13 ar  
    21   12   17 ar  
    22   13   14 ar  
    23   13   34 1   
    24   14   15 ar  
    25   14   18 1   
    26   15   16 ar  
    27   15   20 1   
    28   16   17 ar  
    29   16   36 1   
    30   17   35 1   
    31   18   19 2   
    32   18   21 1   
    33   19   20 1   
    34   19   38 1   
    35   20   37 1   
    36   21   22 1   
    37   21   26 1   
    38   21   39 1   
    39   22   23 1   
    40   22   40 1   
    41   22   41 1   
    42   23   24 1   
    43   23   44 1   
    44   23   45 1   
    45   24   25 1   
    46   24   46 1   
    47   25   26 1   
    48   25   47 1   
    49   25   48 1   
    50   26   42 1   
    51   26   43 1   
@<TRIPOS>SUBSTRUCTURE
     1 7AH         1 TEMP              0 ****  ****    0 ROOT
