@<TRIPOS>MOLECULE
7AH
   49    52     1     0     0
SMALL
bcc


@<TRIPOS>ATOM
      1 O           3.3230    1.0270   -0.8130 o         1 7AH     -0.419100
      2 C5          2.2420    0.6890   -0.3580 c         1 7AH      0.557100
      3 C4          1.4700    1.3200    0.7680 c3        1 7AH     -0.091100
      4 C3          1.0110    0.3230    1.7690 ca        1 7AH     -0.184300
      5 C2          1.8610   -0.0650    2.8130 ca        1 7AH     -0.095500
      6 C1          1.4280   -0.9620    3.7820 ca        1 7AH     -0.159000
      7 C19        -0.2950   -0.1820    1.7160 ca        1 7AH     -0.095500
      8 C20        -0.7480   -1.0780    2.6760 ca        1 7AH     -0.159000
      9 C           0.1170   -1.4760    3.7170 ca        1 7AH      0.172900
     10 F          -0.3140   -2.3470    4.6520 f         1 7AH     -0.107900
     11 N           1.6020   -0.5240   -1.0100 n4        1 7AH     -0.536200
     12 C6          0.7810   -0.1440   -2.1630 ca        1 7AH     -0.110400
     13 C18         1.4040    0.4040   -3.2930 ca        1 7AH     -0.034000
     14 C17         0.6120    0.7340   -4.3840 ca        1 7AH     -0.086800
     15 C9         -0.8250    0.5050   -4.3320 ca        1 7AH     -0.016200
     16 C8         -1.4250   -0.0460   -3.1860 ca        1 7AH     -0.109000
     17 C7         -0.6200   -0.3660   -2.1110 ca        1 7AH     -0.111000
     18 C11         0.8910    1.3010   -5.6870 cc        1 7AH     -0.106400
     19 C10        -0.3340    1.3940   -6.3540 cd        1 7AH     -0.072100
     20 N1         -1.3670    0.9160   -5.5390 na        1 7AH     -0.162400
     21 C12         2.2140    1.7020   -6.2060 c3        1 7AH     -0.002500
     22 C16         2.5800    0.8970   -7.4500 c3        1 7AH     -0.072400
     23 C15         3.9170    1.3630   -8.0260 c3        1 7AH      0.164800
     24 N2          3.9530    2.7890   -8.2770 n3        1 7AH     -0.823200
     25 C14         3.5950    3.5920   -7.1260 c3        1 7AH      0.164800
     26 C13         2.2480    3.1950   -6.5230 c3        1 7AH     -0.072400
     27 H41C        0.5990    1.8790    0.3240 hc        1 7AH      0.122700
     28 H42C        2.1520    2.0790    1.2500 hc        1 7AH      0.122700
     29 H           1.0150   -1.0050   -0.3160 hn        1 7AH      0.463300
     30 H2          2.8800    0.3520    2.8800 ha        1 7AH      0.146500
     31 H19        -0.9860    0.1550    0.9250 ha        1 7AH      0.146500
     32 H1          2.0920   -1.2660    4.6070 ha        1 7AH      0.173500
     33 H20        -1.7770   -1.4690    2.6460 ha        1 7AH      0.173500
     34 H18         2.4930    0.5790   -3.3290 ha        1 7AH      0.166000
     35 H7         -1.0830   -0.8040   -1.2110 ha        1 7AH      0.143000
     36 H8         -2.5110   -0.2230   -3.1440 ha        1 7AH      0.165000
     37 HA         -2.3240    0.8710   -5.7870 hn        1 7AH      0.321700
     38 H10        -0.5440    1.7700   -7.3600 h4        1 7AH      0.197000
     39 H12         2.9900    1.4940   -5.4130 hc        1 7AH      0.048700
     40 H161        1.7730    1.0130   -8.2200 hc        1 7AH      0.050950
     41 H162        2.6590   -0.1900   -7.1940 hc        1 7AH      0.050950
     42 H131        1.4220    3.4430   -7.2400 hc        1 7AH      0.050950
     43 H132        2.0840    3.7890   -5.5890 hc        1 7AH      0.050950
     44 H151        4.0880    0.8440   -9.0110 h1        1 7AH      0.033950
     45 H152        4.7360    1.0340   -7.3190 h1        1 7AH      0.033950
     46 HB          4.8540    3.0600   -8.6250 hn        1 7AH      0.375800
     47 H141        3.5370    4.6640   -7.4690 h1        1 7AH      0.033950
     48 H142        4.3750    3.5370   -6.3090 h1        1 7AH      0.033950
     49 HN3         2.3380   -1.1640   -1.3350 hn        1 7AH      0.463300
@<TRIPOS>BOND
     1    1    2 2   
     2    2    3 1   
     3    2   11 1   
     4    3    4 1   
     5    3   27 1   
     6    3   28 1   
     7    4    5 ar  
     8    4    7 ar  
     9    5    6 ar  
    10    5   30 1   
    11    6    9 ar  
    12    6   32 1   
    13    7    8 ar  
    14    7   31 1   
    15    8    9 ar  
    16    8   33 1   
    17    9   10 1   
    18   11   12 1   
    19   11   29 1   
    20   11   49 1   
    21   12   13 ar  
    22   12   17 ar  
    23   13   14 ar  
    24   13   34 1   
    25   14   15 ar  
    26   14   18 1   
    27   15   16 ar  
    28   15   20 1   
    29   16   17 ar  
    30   16   36 1   
    31   17   35 1   
    32   18   19 2   
    33   18   21 1   
    34   19   20 1   
    35   19   38 1   
    36   20   37 1   
    37   21   22 1   
    38   21   26 1   
    39   21   39 1   
    40   22   23 1   
    41   22   40 1   
    42   22   41 1   
    43   23   24 1   
    44   23   44 1   
    45   23   45 1   
    46   24   25 1   
    47   24   46 1   
    48   25   26 1   
    49   25   47 1   
    50   25   48 1   
    51   26   42 1   
    52   26   43 1   
@<TRIPOS>SUBSTRUCTURE
     1 7AH         1 TEMP              0 ****  ****    0 ROOT
