@<TRIPOS>MOLECULE
7AH
   48    51     1     0     0
SMALL
bcc


@<TRIPOS>ATOM
      1 O          -0.2640   -2.8320   -0.1920 o         1 7AH     -0.595100
      2 C5          0.5380   -1.8980   -0.0060 c         1 7AH      0.664100
      3 C4          0.9490   -1.5270    1.4160 c3        1 7AH     -0.114100
      4 C3          1.0060   -0.0640    1.6620 ca        1 7AH     -0.111300
      5 C2         -0.1540    0.6370    2.0150 ca        1 7AH     -0.101000
      6 C1         -0.1100    2.0040    2.2650 ca        1 7AH     -0.163000
      7 C19         2.2220    0.6240    1.5650 ca        1 7AH     -0.101000
      8 C20         2.2880    1.9910    1.8130 ca        1 7AH     -0.163000
      9 C           1.1160    2.6880    2.1640 ca        1 7AH      0.130900
     10 F           1.1700    4.0190    2.4060 f         1 7AH     -0.136900
     11 N           1.1470   -1.1920   -1.0300 n         1 7AH     -0.463100
     12 C6          0.8840   -1.3100   -2.4100 ca        1 7AH      0.037600
     13 C18         1.2350   -0.2360   -3.2490 ca        1 7AH     -0.140000
     14 C17         1.0230   -0.3460   -4.6200 ca        1 7AH     -0.063800
     15 C9          0.4410   -1.5520   -5.1640 ca        1 7AH     -0.065200
     16 C8          0.0890   -2.6160   -4.3230 ca        1 7AH     -0.124000
     17 C7          0.3130   -2.4900   -2.9640 ca        1 7AH     -0.127000
     18 C11         1.2620    0.5380   -5.7440 cc        1 7AH     -0.143400
     19 C10         0.8320   -0.1380   -6.8880 cd        1 7AH     -0.094100
     20 N1          0.3390   -1.3980   -6.5490 na        1 7AH     -0.192400
     21 C12         1.8460    1.8910   -5.6800 c3        1 7AH      0.010500
     22 C16         3.1450    1.9710   -6.4770 c3        1 7AH     -0.072400
     23 C15         3.7170    3.3860   -6.4460 c3        1 7AH      0.162800
     24 N2          2.7670    4.3980   -6.8650 n3        1 7AH     -0.820200
     25 C14         1.4970    4.3320   -6.1690 c3        1 7AH      0.162800
     26 C13         0.8670    2.9420   -6.1930 c3        1 7AH     -0.072400
     27 H41C        1.9490   -2.0000    1.6150 hc        1 7AH      0.085700
     28 H42C        0.2030   -2.0060    2.1070 hc        1 7AH      0.085700
     29 H           1.6820   -0.3930   -0.7650 hn        1 7AH      0.317500
     30 H2         -1.1120    0.1000    2.0960 ha        1 7AH      0.143500
     31 H19         3.1410    0.0790    1.2990 ha        1 7AH      0.143500
     32 H1         -1.0200    2.5560    2.5420 ha        1 7AH      0.153000
     33 H20         3.2420    2.5320    1.7400 ha        1 7AH      0.153000
     34 H18         1.6760    0.6880   -2.8460 ha        1 7AH      0.132000
     35 H7          0.0320   -3.3240   -2.2990 ha        1 7AH      0.169000
     36 H8         -0.3560   -3.5350   -4.7290 ha        1 7AH      0.136000
     37 HA         -0.0380   -2.0610   -7.1710 hn        1 7AH      0.299700
     38 H10         0.8450    0.1960   -7.9280 h4        1 7AH      0.168000
     39 H12         2.0810    2.1270   -4.6020 hc        1 7AH      0.049700
     40 H161        3.9010    1.2680   -6.0450 hc        1 7AH      0.048950
     41 H162        2.9520    1.6600   -7.5360 hc        1 7AH      0.048950
     42 H131       -0.0510    2.9520   -5.5520 hc        1 7AH      0.048950
     43 H132        0.5540    2.6810   -7.2370 hc        1 7AH      0.048950
     44 H151        4.1100    3.5820   -5.4030 h1        1 7AH      0.025700
     45 H152        4.5940    3.4410   -7.1520 h1        1 7AH      0.025700
     46 HB          3.1700    5.3100   -6.7520 hn        1 7AH      0.359800
     47 H141        0.8010    5.0560   -6.6800 h1        1 7AH      0.025700
     48 H142        1.5890    4.6560   -5.0890 h1        1 7AH      0.025700
@<TRIPOS>BOND
     1    1    2 2   
     2    2    3 1   
     3    2   11 1   
     4    3    4 1   
     5    3   27 1   
     6    3   28 1   
     7    4    5 ar  
     8    4    7 ar  
     9    5    6 ar  
    10    5   30 1   
    11    6    9 ar  
    12    6   32 1   
    13    7    8 ar  
    14    7   31 1   
    15    8    9 ar  
    16    8   33 1   
    17    9   10 1   
    18   11   12 1   
    19   11   29 1   
    20   12   13 ar  
    21   12   17 ar  
    22   13   14 ar  
    23   13   34 1   
    24   14   15 ar  
    25   14   18 1   
    26   15   16 ar  
    27   15   20 1   
    28   16   17 ar  
    29   16   36 1   
    30   17   35 1   
    31   18   19 2   
    32   18   21 1   
    33   19   20 1   
    34   19   38 1   
    35   20   37 1   
    36   21   22 1   
    37   21   26 1   
    38   21   39 1   
    39   22   23 1   
    40   22   40 1   
    41   22   41 1   
    42   23   24 1   
    43   23   44 1   
    44   23   45 1   
    45   24   25 1   
    46   24   46 1   
    47   25   26 1   
    48   25   47 1   
    49   25   48 1   
    50   26   42 1   
    51   26   43 1   
@<TRIPOS>SUBSTRUCTURE
     1 7AH         1 TEMP              0 ****  ****    0 ROOT
