@<TRIPOS>MOLECULE
7AP
   29    26     1     0     0
SMALL
bcc


@<TRIPOS>ATOM
      1 N1          1.2020    0.2090   -3.2900 n1        1 7AP     -0.572800
      2 C2          2.5660    0.2840   -3.3030 c1        1 7AP      0.605600
      3 N2          3.2660    0.2520   -4.5370 n3        1 7AP     -0.801400
      4 N3          3.2600    0.3800   -2.1250 n1        1 7AP     -0.645800
      5 C4          2.5990    0.4000   -0.9530 c1        1 7AP      0.315800
      6 N4          3.3180    0.5080    0.2650 n3        1 7AP     -0.812400
      7 C4A         1.2140    0.3240   -0.9370 cg        1 7AP     -0.153200
      8 C8A         0.5280    0.2290   -2.1040 cg        1 7AP      0.510600
      9 N5          0.5410    0.3140    0.2550 n1        1 7AP     -0.458600
     10 C6         -0.7960    0.2110    0.2690 c1        1 7AP      0.203700
     11 C7         -1.4960    0.1150   -0.9210 c1        1 7AP      0.330300
     12 N8         -0.8370    0.1240   -2.0890 n1        1 7AP     -0.504600
     13 C1'        -1.6290    0.4060    1.5160 c3        1 7AP      0.140200
     14 O1'        -0.8470    1.0210    2.5110 oh        1 7AP     -0.597800
     15 C2'        -2.1120   -0.9370    2.0140 c3        1 7AP      0.153100
     16 O2'        -1.0990   -1.5450    2.7800 oh        1 7AP     -0.589800
     17 C3'        -3.3440   -0.7440    2.8680 c3        1 7AP     -0.130100
     18 H77        -2.4690    0.0400   -0.9110 ha        1 7AP      0.113500
     19 H1''       -2.3980    0.9720    1.3090 h1        1 7AP      0.050700
     20 H2''       -2.3300   -1.5080    1.2510 h1        1 7AP      0.075700
     21 H3'1       -3.0760   -0.4870    3.7750 hc        1 7AP      0.048367
     22 H3'2       -3.8520   -1.5820    2.9030 hc        1 7AP      0.048367
     23 H3'3       -3.9040   -0.0390    2.4810 hc        1 7AP      0.048367
     24 HO1        -1.3170   -2.3930    2.9410 ho        1 7AP      0.417000
     25 HO2        -1.0810    1.8760    2.5860 ho        1 7AP      0.419000
     26 HN1         2.8290    0.4480   -5.3150 hn        1 7AP      0.442300
     27 HN2         3.0910   -0.0180    0.9780 hn        1 7AP      0.451800
     28 HN3         4.1560    0.0460   -4.5520 hn        1 7AP      0.442300
     29 HN4         4.0170    1.0940    0.3330 hn        1 7AP      0.451800
@<TRIPOS>BOND
     1    1    8 3   
     2    2    3 1   
     3    2    4 3   
     4    3   26 1   
     5    3   28 1   
     6    5    6 1   
     7    5    7 3   
     8    6   27 1   
     9    6   29 1   
    10    7    9 1   
    11    8   12 1   
    12    9   10 3   
    13   10   13 1   
    14   11   12 3   
    15   11   18 1   
    16   13   14 1   
    17   13   15 1   
    18   13   19 1   
    19   14   25 1   
    20   15   16 1   
    21   15   17 1   
    22   15   20 1   
    23   16   24 1   
    24   17   21 1   
    25   17   22 1   
    26   17   23 1   
@<TRIPOS>SUBSTRUCTURE
     1 7AP         1 TEMP              0 ****  ****    0 ROOT
