@<TRIPOS>MOLECULE
7AP
   29    30     1     0     0
SMALL
bcc


@<TRIPOS>ATOM
      1 N1          2.2470   -7.4110   -4.5320 nb        1 7AP     -0.773000
      2 C2          2.7040   -7.1560   -5.8060 ca        1 7AP      0.941900
      3 N2          3.7360   -7.9560   -6.2810 nh        1 7AP     -0.938500
      4 N3          2.2590   -6.1470   -6.6630 nb        1 7AP     -0.848000
      5 C4          1.3220   -5.2920   -6.1890 ca        1 7AP      0.716900
      6 N4          0.8860   -4.2740   -6.9920 nh        1 7AP     -0.951500
      7 C4A         0.7790   -5.4440   -4.8280 ca        1 7AP      0.025000
      8 C8A         1.2950   -6.5540   -4.0500 ca        1 7AP      0.628000
      9 N5         -0.1690   -4.5800   -4.3460 nb        1 7AP     -0.565000
     10 C6         -0.6240   -4.8030   -3.1180 ca        1 7AP      0.243300
     11 C7         -0.1170   -5.9140   -2.3290 ca        1 7AP      0.335900
     12 N8          0.7990   -6.7580   -2.7520 nb        1 7AP     -0.625000
     13 C1'        -1.6750   -3.9410   -2.4620 c3        1 7AP      0.073800
     14 O1'        -2.5640   -3.4390   -3.4490 oh        1 7AP     -0.573800
     15 C2'        -1.0540   -2.7830   -1.6470 c3        1 7AP      0.110100
     16 O2'        -0.3830   -3.2970   -0.5110 oh        1 7AP     -0.592800
     17 C3'        -0.1660   -1.8910   -2.4870 c3        1 7AP     -0.125100
     18 H77        -0.5050   -6.0750   -1.3050 h4        1 7AP      0.040100
     19 H1''       -2.2550   -4.5960   -1.7450 h1        1 7AP      0.052700
     20 H2''       -1.8990   -2.1760   -1.2060 h1        1 7AP      0.071700
     21 H3'1        0.7870   -2.4110   -2.7480 hc        1 7AP      0.052033
     22 H3'2       -0.6960   -1.6210   -3.4330 hc        1 7AP      0.052033
     23 H3'3        0.0840   -0.9610   -1.9230 hc        1 7AP      0.052033
     24 HO1         0.4200   -3.7340   -0.8230 ho        1 7AP      0.404000
     25 HO2        -3.2080   -2.8950   -2.9790 ho        1 7AP      0.403000
     26 HN1         3.9500   -7.9230   -7.2480 hn        1 7AP      0.441300
     27 HN2         1.2190   -4.1870   -7.9210 hn        1 7AP      0.453800
     28 HN3         3.9540   -8.7830   -5.7800 hn        1 7AP      0.441300
     29 HN4         0.1540   -3.6830   -6.6820 hn        1 7AP      0.453800
@<TRIPOS>BOND
     1    1    2 ar  
     2    1    8 ar  
     3    2    3 1   
     4    2    4 ar  
     5    3   26 1   
     6    3   28 1   
     7    4    5 ar  
     8    5    6 1   
     9    5    7 ar  
    10    6   27 1   
    11    6   29 1   
    12    7    8 ar  
    13    7    9 ar  
    14    8   12 ar  
    15    9   10 ar  
    16   10   11 ar  
    17   10   13 1   
    18   11   12 ar  
    19   11   18 1   
    20   13   14 1   
    21   13   15 1   
    22   13   19 1   
    23   14   25 1   
    24   15   16 1   
    25   15   17 1   
    26   15   20 1   
    27   16   24 1   
    28   17   21 1   
    29   17   22 1   
    30   17   23 1   
@<TRIPOS>SUBSTRUCTURE
     1 7AP         1 TEMP              0 ****  ****    0 ROOT
