@<TRIPOS>MOLECULE
7AP
   31    32     1     0     0
SMALL
bcc


@<TRIPOS>ATOM
      1 N1         -0.0290   -0.2340   -0.0560 nb        1 7AP     -0.548000
      2 C2          1.3130   -0.0660   -0.1090 ca        1 7AP      0.719900
      3 N2          1.9310   -0.1340   -1.4660 n4        1 7AP     -0.812300
      4 N3          2.1900    0.1650    0.9410 nb        1 7AP     -0.662000
      5 C4          1.6270    0.2240    2.1600 ca        1 7AP      0.501900
      6 N4          2.4940    0.4760    3.3300 n4        1 7AP     -0.821300
      7 C4A         0.2130    0.0590    2.3800 ca        1 7AP      0.188000
      8 C8A        -0.6000   -0.1730    1.1930 ca        1 7AP      0.587000
      9 N5         -0.3280    0.1280    3.6460 nb        1 7AP     -0.660000
     10 C6         -1.6440   -0.0080    3.7530 ca        1 7AP      0.445300
     11 C7         -2.4720   -0.2520    2.5510 ca        1 7AP      0.400900
     12 N8         -1.9870   -0.3360    1.3340 nb        1 7AP     -0.559000
     13 C1'        -2.3930    0.0920    5.0650 c3        1 7AP      0.079800
     14 O1'        -1.5470    0.6500    6.0510 oh        1 7AP     -0.583800
     15 C2'        -2.9310   -1.2900    5.5160 c3        1 7AP      0.116100
     16 O2'        -3.6830   -1.7870    4.4180 oh        1 7AP     -0.635800
     17 C3'        -1.8290   -2.2490    5.9130 c3        1 7AP     -0.136100
     18 H77        -3.5730   -0.4040    2.6720 h4        1 7AP      0.123100
     19 H1''       -3.2730    0.7800    4.8770 h1        1 7AP      0.097700
     20 H2''       -3.6150   -1.1060    6.3950 h1        1 7AP      0.078700
     21 H3'1       -1.2330   -2.5560    5.0220 hc        1 7AP      0.061367
     22 H3'2       -1.1530   -1.7630    6.6570 hc        1 7AP      0.061367
     23 H3'3       -2.2710   -3.1670    6.3730 hc        1 7AP      0.061367
     24 HO1        -4.1670   -2.5650    4.7260 ho        1 7AP      0.451000
     25 HO2        -2.0650    0.7070    6.8690 ho        1 7AP      0.447000
     26 HN1         2.6190   -0.9010   -1.4930 hn        1 7AP      0.500133
     27 HN2         2.1640    1.3320    3.8070 hn        1 7AP      0.499133
     28 HN3         1.1980   -0.3070   -2.1780 hn        1 7AP      0.500133
     29 HN4         2.4040   -0.3190    3.9840 hn        1 7AP      0.499133
     30 H23         2.4020    0.7590   -1.6750 hn        1 7AP      0.500133
     31 H43         3.4830    0.5910    3.0630 hn        1 7AP      0.499133
@<TRIPOS>BOND
     1    1    2 ar  
     2    1    8 ar  
     3    2    3 1   
     4    2    4 ar  
     5    3   26 1   
     6    3   28 1   
     7    3   30 1   
     8    4    5 ar  
     9    5    6 1   
    10    5    7 ar  
    11    6   27 1   
    12    6   29 1   
    13    6   31 1   
    14    7    8 ar  
    15    7    9 ar  
    16    8   12 ar  
    17    9   10 ar  
    18   10   11 ar  
    19   10   13 1   
    20   11   12 ar  
    21   11   18 1   
    22   13   14 1   
    23   13   15 1   
    24   13   19 1   
    25   14   25 1   
    26   15   16 1   
    27   15   17 1   
    28   15   20 1   
    29   16   24 1   
    30   17   21 1   
    31   17   22 1   
    32   17   23 1   
@<TRIPOS>SUBSTRUCTURE
     1 7AP         1 TEMP              0 ****  ****    0 ROOT
