@<TRIPOS>MOLECULE
7AP
   29    30     1     0     0
SMALL
bcc


@<TRIPOS>ATOM
      1 N1          0.0200   -0.3270    0.0620 nb        1 7AP     -0.772000
      2 C2          1.3680   -0.0630   -0.0160 ca        1 7AP      0.937900
      3 N2          1.9410   -0.0490   -1.2830 nv        1 7AP     -0.938500
      4 N3          2.2220    0.2300    1.0500 nb        1 7AP     -0.847000
      5 C4          1.6700    0.3210    2.2830 ca        1 7AP      0.715900
      6 N4          2.4760    0.6240    3.3470 nv        1 7AP     -0.956500
      7 C4A         0.2300    0.0970    2.4870 ca        1 7AP      0.026000
      8 C8A        -0.5420   -0.2400    1.3070 ca        1 7AP      0.628000
      9 N5         -0.3350    0.2000    3.7330 nb        1 7AP     -0.602000
     10 C6         -1.6390   -0.0320    3.8290 ca        1 7AP      0.217300
     11 C7         -2.4200   -0.3850    2.6550 ca        1 7AP      0.352900
     12 N8         -1.9180   -0.4900    1.4440 nb        1 7AP     -0.629000
     13 C1'        -2.3940    0.0800    5.1330 c3        1 7AP      0.108800
     14 O1'        -1.6170    0.5290    6.2310 oh        1 7AP     -0.588800
     15 C2'        -2.9870   -1.2720    5.5910 c3        1 7AP      0.145100
     16 O2'        -4.1650   -1.4590    4.8130 oh        1 7AP     -0.614800
     17 C3'        -2.0150   -2.4230    5.4390 c3        1 7AP     -0.130100
     18 H77        -3.5030   -0.5940    2.7760 h4        1 7AP      0.059100
     19 H1''       -3.2450    0.8040    4.9610 h1        1 7AP      0.063700
     20 H2''       -3.2830   -1.1630    6.6750 h1        1 7AP      0.059700
     21 H3'1       -1.0580   -2.1680    5.9540 hc        1 7AP      0.051033
     22 H3'2       -1.8060   -2.6200    4.3600 hc        1 7AP      0.051033
     23 H3'3       -2.4380   -3.3490    5.8960 hc        1 7AP      0.051033
     24 HO1        -4.4690   -2.3590    4.9800 ho        1 7AP      0.411000
     25 HO2        -1.1630    1.3340    5.9540 ho        1 7AP      0.417000
     26 HN1         1.4150   -0.4270   -2.0350 hn        1 7AP      0.440300
     27 HN2         3.4490    0.7620    3.2200 hn        1 7AP      0.451800
     28 HN3         2.9290   -0.0630   -1.3510 hn        1 7AP      0.440300
     29 HN4         2.0960    0.6590    4.2600 hn        1 7AP      0.451800
@<TRIPOS>BOND
     1    1    2 ar  
     2    1    8 ar  
     3    2    3 1   
     4    2    4 ar  
     5    3   26 1   
     6    3   28 1   
     7    4    5 ar  
     8    5    6 1   
     9    5    7 ar  
    10    6   27 1   
    11    6   29 1   
    12    7    8 ar  
    13    7    9 ar  
    14    8   12 ar  
    15    9   10 ar  
    16   10   11 ar  
    17   10   13 1   
    18   11   12 ar  
    19   11   18 1   
    20   13   14 1   
    21   13   15 1   
    22   13   19 1   
    23   14   25 1   
    24   15   16 1   
    25   15   17 1   
    26   15   20 1   
    27   16   24 1   
    28   17   21 1   
    29   17   22 1   
    30   17   23 1   
@<TRIPOS>SUBSTRUCTURE
     1 7AP         1 TEMP              0 ****  ****    0 ROOT
