@<TRIPOS>MOLECULE
7AP
   29    30     1     0     0
SMALL
bcc


@<TRIPOS>ATOM
      1 N1          0.0090   -0.3160    0.0610 nb        1 7AP     -0.772000
      2 C2          1.3590   -0.0620   -0.0200 ca        1 7AP      0.937900
      3 N2          1.9270   -0.0450   -1.2890 nh        1 7AP     -0.938500
      4 N3          2.2190    0.2190    1.0450 nb        1 7AP     -0.847000
      5 C4          1.6720    0.3060    2.2800 ca        1 7AP      0.715900
      6 N4          2.4850    0.5980    3.3430 nh        1 7AP     -0.956500
      7 C4A         0.2320    0.0920    2.4880 ca        1 7AP      0.026000
      8 C8A        -0.5470   -0.2320    1.3080 ca        1 7AP      0.628000
      9 N5         -0.3290    0.1910    3.7360 nb        1 7AP     -0.602000
     10 C6         -1.6330   -0.0310    3.8370 ca        1 7AP      0.217300
     11 C7         -2.4220   -0.3720    2.6630 ca        1 7AP      0.352900
     12 N8         -1.9240   -0.4730    1.4500 nb        1 7AP     -0.629000
     13 C1'        -2.3830    0.0790    5.1440 c3        1 7AP      0.108800
     14 O1'        -1.5980    0.5130    6.2420 oh        1 7AP     -0.588800
     15 C2'        -2.9860   -1.2710    5.5950 c3        1 7AP      0.145100
     16 O2'        -4.1700   -1.4430    4.8210 oh        1 7AP     -0.614800
     17 C3'        -2.0260   -2.4300    5.4300 c3        1 7AP     -0.130100
     18 H77        -3.5060   -0.5730    2.7870 h4        1 7AP      0.059100
     19 H1''       -3.2280    0.8110    4.9790 h1        1 7AP      0.063700
     20 H2''       -3.2760   -1.1670    6.6810 h1        1 7AP      0.059700
     21 H3'1       -1.8230   -2.6210    4.3490 hc        1 7AP      0.051033
     22 H3'2       -1.0630   -2.1870    5.9420 hc        1 7AP      0.051033
     23 H3'3       -2.4550   -3.3550    5.8830 hc        1 7AP      0.051033
     24 HO1        -4.4810   -2.3410    4.9840 ho        1 7AP      0.411000
     25 HO2        -1.1390    1.3160    5.9690 ho        1 7AP      0.417000
     26 HN1         2.9160   -0.0660   -1.3610 hn        1 7AP      0.440300
     27 HN2         2.1080    0.6300    4.2570 hn        1 7AP      0.451800
     28 HN3         1.3960   -0.4150   -2.0420 hn        1 7AP      0.440300
     29 HN4         3.4570    0.7300    3.2130 hn        1 7AP      0.451800
@<TRIPOS>BOND
     1    1    2 ar  
     2    1    8 ar  
     3    2    3 1   
     4    2    4 ar  
     5    3   26 1   
     6    3   28 1   
     7    4    5 ar  
     8    5    6 1   
     9    5    7 ar  
    10    6   27 1   
    11    6   29 1   
    12    7    8 ar  
    13    7    9 ar  
    14    8   12 ar  
    15    9   10 ar  
    16   10   11 ar  
    17   10   13 1   
    18   11   12 ar  
    19   11   18 1   
    20   13   14 1   
    21   13   15 1   
    22   13   19 1   
    23   14   25 1   
    24   15   16 1   
    25   15   17 1   
    26   15   20 1   
    27   16   24 1   
    28   17   21 1   
    29   17   22 1   
    30   17   23 1   
@<TRIPOS>SUBSTRUCTURE
     1 7AP         1 TEMP              0 ****  ****    0 ROOT
