@<TRIPOS>MOLECULE
7AW
   97    99     1     0     0
SMALL
bcc


@<TRIPOS>ATOM
      1 O38         2.6640    0.5250    0.1470 o         1 7AW     -0.488000
      2 C37         1.4900    0.8760    0.0720 c         1 7AW      0.643100
      3 O39         0.6380    1.1380    1.0540 os        1 7AW     -0.399900
      4 C40         1.1510    1.2850    2.4450 c3        1 7AW      0.272700
      5 C41         1.4980    2.6730    2.7030 cc        1 7AW     -0.361700
      6 S45         3.0170    3.2510    3.1540 ss        1 7AW     -0.022300
      7 C44         2.3960    4.8220    3.3290 cc        1 7AW      0.424300
      8 N43         1.0920    4.9530    3.0680 nd        1 7AW     -0.604000
      9 C42         0.5700    3.7280    2.7280 cd        1 7AW      0.415200
     10 N36         0.7990    1.0100   -1.2620 ny        1 7AW     -0.657800
     11 C04         1.0300   -0.1750   -2.1750 c3        1 7AW      0.137500
     12 C03        -0.2890   -0.6190   -2.8270 c3        1 7AW     -0.118400
     13 C02        -1.3410   -1.0570   -1.8260 c3        1 7AW     -0.094400
     14 C01        -2.4610   -1.7920   -2.5220 c3        1 7AW     -0.103100
     15 C05         2.0730    0.1140   -3.2670 c3        1 7AW     -0.102400
     16 C06         3.5040   -0.2310   -2.8830 c3        1 7AW     -0.118400
     17 C07         3.9470   -1.5730   -3.4850 c3        1 7AW      0.136500
     18 C08         3.2030   -2.7360   -2.8080 c3        1 7AW     -0.055100
     19 C09         3.6760   -4.0730   -3.2540 ca        1 7AW     -0.188300
     20 C14         4.5370   -4.8190   -2.4350 ca        1 7AW     -0.138000
     21 C13         4.8960   -6.1160   -2.7960 ca        1 7AW     -0.109500
     22 C12         4.4000   -6.6780   -3.9740 ca        1 7AW     -0.086000
     23 C11         3.5490   -5.9370   -4.7950 ca        1 7AW     -0.109500
     24 C10         3.1860   -4.6380   -4.4370 ca        1 7AW     -0.138000
     25 N15         5.4490   -1.7850   -3.3530 ny        1 7AW     -0.675800
     26 C16         6.2790   -1.2080   -4.4600 c         1 7AW      0.514100
     27 O17         5.7610   -0.3900   -5.2040 o         1 7AW     -0.399100
     28 C18         7.7430   -1.7140   -4.5510 c3        1 7AW      0.048700
     29 C33         8.4470   -1.5190   -3.1810 c3        1 7AW     -0.086700
     30 C35         9.8660   -2.0480   -3.2240 c3        1 7AW     -0.117100
     31 C34         8.4240   -0.0780   -2.7250 c3        1 7AW     -0.117100
     32 N19         8.4330   -1.0370   -5.6380 ns        1 7AW     -0.518900
     33 C20         9.0360   -1.7360   -6.6540 c         1 7AW      0.665100
     34 O21         8.9730   -2.9580   -6.8450 o         1 7AW     -0.520100
     35 N22         9.8630   -0.9470   -7.6840 nx        1 7AW     -0.577200
     36 C23         9.0360   -0.7140   -8.8980 c3        1 7AW      0.080100
     37 C24        11.1710   -1.6460   -7.9740 c3        1 7AW      0.194100
     38 C25        11.2070   -2.5640   -9.1460 cc        1 7AW     -0.139600
     39 N32        10.6900   -3.8660   -9.1300 na        1 7AW     -0.098100
     40 C28        11.0300   -4.5490  -10.2620 cc        1 7AW     -0.011700
     41 C29        10.6390   -5.9660  -10.5520 c3        1 7AW     -0.033400
     42 C31        11.3610   -6.4360  -11.8030 c3        1 7AW     -0.120600
     43 C30        10.9330   -6.8830   -9.3810 c3        1 7AW     -0.120600
     44 S27        11.9470   -3.6320  -11.3270 ss        1 7AW      0.482200
     45 C26        11.9090   -2.3170  -10.3240 cd        1 7AW     -0.191100
     46 H1          0.2260    0.9540    3.0030 h1        1 7AW      0.112200
     47 H2          2.0010    0.5690    2.5840 h1        1 7AW      0.112200
     48 H3          2.9970    5.6840    3.6520 h5        1 7AW      0.090100
     49 H4         -0.5060    3.6480    2.5170 h4        1 7AW      0.063100
     50 H5          1.1320    1.8750   -1.7040 hn        1 7AW      0.480300
     51 H6          1.4030   -1.0150   -1.5120 hx        1 7AW      0.107700
     52 H7         -0.0450   -1.4920   -3.4930 hc        1 7AW      0.086700
     53 H8         -0.6960    0.1960   -3.4840 hc        1 7AW      0.086700
     54 H9         -0.8780   -1.7260   -1.0530 hc        1 7AW      0.048700
     55 H10        -1.7780   -0.1710   -1.2920 hc        1 7AW      0.048700
     56 H11        -2.0850   -2.7240   -3.0080 hc        1 7AW      0.064033
     57 H12        -3.2460   -2.0780   -1.7770 hc        1 7AW      0.064033
     58 H13        -2.9360   -1.1490   -3.3010 hc        1 7AW      0.064033
     59 H14         2.0350    1.1960   -3.5760 hc        1 7AW      0.093200
     60 H15         1.7740   -0.4670   -4.1840 hc        1 7AW      0.093200
     61 H16         3.6120   -0.2560   -1.7640 hc        1 7AW      0.085200
     62 H17         4.1740    0.5830   -3.2740 hc        1 7AW      0.085200
     63 H18         3.7280   -1.5850   -4.5950 hx        1 7AW      0.118700
     64 H19         2.1150   -2.6110   -3.0740 hc        1 7AW      0.091200
     65 H20         3.2880   -2.6460   -1.6910 hc        1 7AW      0.091200
     66 H21         4.8730   -4.4140   -1.4680 ha        1 7AW      0.137000
     67 H22         5.5430   -6.7130   -2.1310 ha        1 7AW      0.170500
     68 H23         4.6570   -7.7180   -4.2400 ha        1 7AW      0.175000
     69 H24         3.1340   -6.3900   -5.7120 ha        1 7AW      0.170500
     70 H25         2.4830   -4.0750   -5.0700 ha        1 7AW      0.137000
     71 H26         5.6140   -2.8100   -3.3070 hn        1 7AW      0.479300
     72 H27         7.7040   -2.8260   -4.7860 h1        1 7AW      0.140700
     73 H28         7.8860   -2.1560   -2.4380 hc        1 7AW      0.071700
     74 H29        10.5300   -1.3900   -3.8330 hc        1 7AW      0.067200
     75 H30        10.2820   -2.0740   -2.1830 hc        1 7AW      0.067200
     76 H31         9.8950   -3.0860   -3.6350 hc        1 7AW      0.067200
     77 H32         8.7840   -0.0130   -1.6650 hc        1 7AW      0.067200
     78 H33         7.3930    0.3490   -2.7730 hc        1 7AW      0.067200
     79 H34         9.1030    0.5610   -3.3410 hc        1 7AW      0.067200
     80 H35         8.5620   -0.0510   -5.5290 hn        1 7AW      0.365500
     81 H36         8.6660   -1.6960   -9.2990 hx        1 7AW      0.123033
     82 H37         9.6630   -0.1980   -9.6780 hx        1 7AW      0.123033
     83 H38         8.1600   -0.0600   -8.6340 hx        1 7AW      0.123033
     84 H39        11.9370   -0.8270   -8.1650 hx        1 7AW      0.144700
     85 H40        11.4750   -2.2060   -7.0370 hx        1 7AW      0.144700
     86 H41         9.5240   -5.9770  -10.7510 hc        1 7AW      0.113700
     87 H42        11.2190   -5.7180  -12.6490 hc        1 7AW      0.077200
     88 H43        12.4530   -6.5810  -11.6120 hc        1 7AW      0.077200
     89 H44        10.9400   -7.4250  -12.1230 hc        1 7AW      0.077200
     90 H45        12.0160   -6.8620   -9.1100 hc        1 7AW      0.077200
     91 H46        10.6730   -7.9350   -9.6700 hc        1 7AW      0.077200
     92 H47        10.3230   -6.6090   -8.4880 hc        1 7AW      0.077200
     93 H48        12.4110   -1.3650  -10.5540 h4        1 7AW      0.244000
     94 H362       -0.2180    1.1100   -1.0880 hn        1 7AW      0.480300
     95 H152        5.7650   -1.3670   -2.4660 hn        1 7AW      0.479300
     96 H192       10.1730   -4.2570   -8.3640 hn        1 7AW      0.361700
     97 H221       10.1170   -0.0250   -7.2950 hn        1 7AW      0.470800
@<TRIPOS>BOND
     1    1    2 2   
     2    2    3 1   
     3    2   10 1   
     4    3    4 1   
     5    4    5 1   
     6    4   46 1   
     7    4   47 1   
     8    5    6 1   
     9    5    9 2   
    10    6    7 1   
    11    7    8 2   
    12    7   48 1   
    13    8    9 1   
    14    9   49 1   
    15   10   11 1   
    16   10   50 1   
    17   10   94 1   
    18   11   12 1   
    19   11   15 1   
    20   11   51 1   
    21   12   13 1   
    22   12   52 1   
    23   12   53 1   
    24   13   14 1   
    25   13   54 1   
    26   13   55 1   
    27   14   56 1   
    28   14   57 1   
    29   14   58 1   
    30   15   16 1   
    31   15   59 1   
    32   15   60 1   
    33   16   17 1   
    34   16   61 1   
    35   16   62 1   
    36   17   18 1   
    37   17   25 1   
    38   17   63 1   
    39   18   19 1   
    40   18   64 1   
    41   18   65 1   
    42   19   20 ar  
    43   19   24 ar  
    44   20   21 ar  
    45   20   66 1   
    46   21   22 ar  
    47   21   67 1   
    48   22   23 ar  
    49   22   68 1   
    50   23   24 ar  
    51   23   69 1   
    52   24   70 1   
    53   25   26 1   
    54   25   71 1   
    55   25   95 1   
    56   26   27 2   
    57   26   28 1   
    58   28   29 1   
    59   28   32 1   
    60   28   72 1   
    61   29   30 1   
    62   29   31 1   
    63   29   73 1   
    64   30   74 1   
    65   30   75 1   
    66   30   76 1   
    67   31   77 1   
    68   31   78 1   
    69   31   79 1   
    70   32   33 1   
    71   32   80 1   
    72   33   34 2   
    73   33   35 1   
    74   35   36 1   
    75   35   37 1   
    76   35   97 1   
    77   36   81 1   
    78   36   82 1   
    79   36   83 1   
    80   37   38 1   
    81   37   84 1   
    82   37   85 1   
    83   38   39 1   
    84   38   45 2   
    85   39   40 2   
    86   39   96 1   
    87   40   41 1   
    88   40   44 1   
    89   41   42 1   
    90   41   43 1   
    91   41   86 1   
    92   42   87 1   
    93   42   88 1   
    94   42   89 1   
    95   43   90 1   
    96   43   91 1   
    97   43   92 1   
    98   44   45 1   
    99   45   93 1   
@<TRIPOS>SUBSTRUCTURE
     1 7AW         1 TEMP              0 ****  ****    0 ROOT
