@<TRIPOS>MOLECULE
7AW
   93    85     1     0     0
SMALL
bcc


@<TRIPOS>ATOM
      1 O38        -4.7800    2.0630    4.9260 o         1 7AW     -0.398000
      2 C37        -5.5500    1.4830    4.1780 c1        1 7AW      0.383000
      3 O39        -6.9240    1.8760    4.1230 o         1 7AW     -0.286000
      4 C40        -7.2530    2.9550    4.9990 c3        1 7AW      0.075000
      5 C41        -8.7040    3.3870    4.7550 c2        1 7AW     -0.412000
      6 S45        -9.8930    2.4560    4.5310 ss        1 7AW      0.531000
      7 C44       -11.1420    3.3410    4.3100 c1        1 7AW     -0.352000
      8 N43       -10.7320    4.7090    4.3960 n2        1 7AW     -0.103000
      9 C42        -9.1860    4.7480    4.6780 c1        1 7AW     -0.116000
     10 N36        -5.0640    0.4280    3.3140 n3        1 7AW     -0.327000
     11 C04        -3.7670   -0.1170    3.5180 c3        1 7AW      0.019000
     12 C03        -3.8770   -1.3980    4.3260 c3        1 7AW     -0.159000
     13 C02        -3.2580   -1.1810    5.7210 c3        1 7AW     -0.160000
     14 C01        -3.0850   -2.5380    6.4210 c3        1 7AW     -0.212000
     15 C05        -3.1240   -0.4200    2.1650 c3        1 7AW     -0.192000
     16 C06        -1.5990   -0.6000    2.3480 c3        1 7AW     -0.164000
     17 C07        -1.0440   -1.4310    1.2000 c3        1 7AW      0.023000
     18 C08        -1.2960   -2.9120    1.4740 c3        1 7AW     -0.144000
     19 C09        -2.4260   -3.4280    0.5390 c1        1 7AW     -0.078000
     20 C14        -2.1070   -4.1980   -0.5770 c1        1 7AW     -0.129250
     21 C13        -3.1200   -4.7620   -1.3470 c1        1 7AW     -0.129250
     22 C12        -4.4540   -4.5570   -1.0010 c1        1 7AW     -0.129250
     23 C11        -4.7730   -3.7880    0.1120 c1        1 7AW     -0.129250
     24 C10        -3.7590   -3.2230    0.8830 c1        1 7AW     -0.135000
     25 N15         0.3550   -1.2020    1.0820 n3        1 7AW     -0.367000
     26 C16         0.9110   -0.7520   -0.1770 c1        1 7AW      0.274000
     27 O17         0.2880   -0.9190   -1.2120 o         1 7AW     -0.388000
     28 C18         2.3190   -0.1700   -0.2210 c2        1 7AW      0.002000
     29 C33         2.2580    1.3360    0.0340 c3        1 7AW     -0.098000
     30 C35         3.4720    1.7630    0.8820 c3        1 7AW     -0.215000
     31 C34         2.2800    2.0870   -1.3110 c3        1 7AW     -0.215000
     32 N19         2.8880   -0.4100   -1.4920 n3        1 7AW     -0.327000
     33 C20         4.2950   -0.6610   -1.6100 c1        1 7AW      0.373000
     34 O21         4.9130   -1.1220   -0.6660 o         1 7AW     -0.411000
     35 N22         4.9600   -0.4350   -2.8590 n2        1 7AW     -0.297000
     36 C23         4.8600   -1.4100   -3.9120 c3        1 7AW     -0.090000
     37 C24         5.8170    0.7190   -3.0210 c3        1 7AW      0.043000
     38 C25         6.2770    0.8130   -4.4800 c2        1 7AW     -0.123000
     39 N32         7.7300    1.1730   -4.9640 n2        1 7AW     -0.112000
     40 C28         7.7220    1.2640   -6.3930 c1        1 7AW     -0.269000
     41 C29         8.8860    1.7260   -7.2670 c2        1 7AW     -0.043000
     42 C31         8.7490    1.1140   -8.6640 c3        1 7AW     -0.214500
     43 C30         8.8690    3.2540   -7.3740 c3        1 7AW     -0.214500
     44 S27         6.2820    0.9710   -6.8800 ss        1 7AW      0.489000
     45 C26         5.4260    0.6970   -5.6450 c1        1 7AW     -0.438000
     46 H1         -7.1510    2.6630    5.9320 h1        1 7AW      0.108000
     47 H2         -6.6530    3.7130    4.8250 h1        1 7AW      0.108000
     48 H3        -12.0530    3.0210    4.1420 DU        1 7AW      0.188333
     49 H4         -8.6420    5.5570    4.7830 DU        1 7AW      0.188333
     50 H5         -5.5950    0.1090    2.6370 hn        1 7AW      0.230000
     51 H6         -3.2120    0.5320    4.0070 h1        1 7AW      0.128000
     52 H7         -4.8240   -1.6440    4.4230 hc        1 7AW      0.085500
     53 H8         -3.3970   -2.1190    3.8630 hc        1 7AW      0.085500
     54 H9         -3.8490   -0.6090    6.2560 hc        1 7AW      0.087500
     55 H10        -2.3810   -0.7470    5.6260 hc        1 7AW      0.087500
     56 H11        -3.9190   -3.0500    6.3520 hc        1 7AW      0.072667
     57 H12        -2.8680   -2.3920    7.3690 hc        1 7AW      0.072667
     58 H13        -2.3550   -3.0380    5.9910 hc        1 7AW      0.072667
     59 H14        -3.5070   -1.2420    1.7990 hc        1 7AW      0.097000
     60 H15        -3.2940    0.3260    1.5460 hc        1 7AW      0.097000
     61 H16        -1.4230   -1.0570    3.1970 hc        1 7AW      0.089000
     62 H17        -1.1620    0.2850    2.3540 hc        1 7AW      0.089000
     63 H18        -1.4890   -1.1730    0.3630 h1        1 7AW      0.132000
     64 H19        -0.4710   -3.4220    1.3040 hc        1 7AW      0.096000
     65 H20        -1.5670   -3.0300    2.4110 hc        1 7AW      0.096000
     66 H21        -1.1680   -4.3420   -0.8200 ha        1 7AW      0.138250
     67 H22        -2.8950   -5.3050   -2.1330 ha        1 7AW      0.138250
     68 H23        -5.1690   -4.9550   -1.5450 ha        1 7AW      0.138250
     69 H24        -5.7140   -3.6440    0.3550 ha        1 7AW      0.138250
     70 H25        -3.9840   -2.6840    1.6650 ha        1 7AW      0.126000
     71 H26         0.8990   -1.2920    1.8180 hn        1 7AW      0.225000
     72 H27         2.8720   -0.5970    0.4710 h4        1 7AW      0.141000
     73 H28         1.4310    1.5520    0.5150 hc        1 7AW      0.094000
     74 H29         3.6190    1.1070    1.5970 hc        1 7AW      0.082167
     75 H30         3.3000    2.6490    1.2790 hc        1 7AW      0.082167
     76 H31         4.2700    1.8100    0.3110 hc        1 7AW      0.082167
     77 H32         1.7880    2.9340   -1.2210 hc        1 7AW      0.082167
     78 H33         3.2120    2.2750   -1.5660 hc        1 7AW      0.082167
     79 H34         1.8570    1.5340   -2.0010 hc        1 7AW      0.082167
     80 H35         2.3490   -0.4720   -2.2310 hn        1 7AW      0.225000
     81 H36         5.3460   -1.5050   -4.7620 h1        1 7AW      0.086667
     82 H37         5.7540   -1.6310   -3.5670 h1        1 7AW      0.086667
     83 H38         4.5220   -0.6210   -4.3850 h1        1 7AW      0.086667
     84 H39         5.3210    1.5310   -2.7820 h1        1 7AW      0.119000
     85 H40         6.6020    0.6290   -2.4350 h1        1 7AW      0.119000
     86 H41         9.7340    1.4350   -6.8630 ha        1 7AW      0.115000
     87 H42         7.9100    1.4180   -9.0740 hc        1 7AW      0.083000
     88 H43         9.5070    1.3970   -9.2210 hc        1 7AW      0.083000
     89 H44         8.7430    0.1340   -8.5930 hc        1 7AW      0.083000
     90 H45         8.0030    3.5480   -7.7350 hc        1 7AW      0.083000
     91 H46         9.5910    3.5490   -7.9740 hc        1 7AW      0.083000
     92 H47         9.0020    3.6480   -6.4820 hc        1 7AW      0.083000
     93 H48         4.4710    0.4810   -5.6420 DU        1 7AW      0.188333
@<TRIPOS>BOND
     1    1    2 1   
     2    2   10 1   
     3    3    4 1   
     4    4    5 1   
     5    4   46 1   
     6    4   47 1   
     7    5    6 1   
     8    5    9 1   
     9    6    7 1   
    10    7    8 1   
    11    8    9 1   
    12   10   11 1   
    13   10   50 1   
    14   11   12 1   
    15   11   15 1   
    16   11   51 1   
    17   12   13 1   
    18   12   52 1   
    19   12   53 1   
    20   13   14 1   
    21   13   54 1   
    22   13   55 1   
    23   14   56 1   
    24   14   57 1   
    25   14   58 1   
    26   15   16 1   
    27   15   59 1   
    28   15   60 1   
    29   16   17 1   
    30   16   61 1   
    31   16   62 1   
    32   17   18 1   
    33   17   25 1   
    34   17   63 1   
    35   18   19 1   
    36   18   64 1   
    37   18   65 1   
    38   19   24 1   
    39   20   21 1   
    40   20   66 1   
    41   21   67 1   
    42   22   23 1   
    43   22   68 1   
    44   23   69 1   
    45   24   70 1   
    46   25   26 1   
    47   25   71 1   
    48   26   27 1   
    49   28   29 1   
    50   28   32 1   
    51   28   72 1   
    52   29   30 1   
    53   29   31 1   
    54   29   73 1   
    55   30   74 1   
    56   30   75 1   
    57   30   76 1   
    58   31   77 1   
    59   31   78 1   
    60   31   79 1   
    61   32   33 1   
    62   32   80 1   
    63   33   34 1   
    64   35   36 1   
    65   35   37 1   
    66   36   81 1   
    67   36   82 1   
    68   36   83 1   
    69   37   38 1   
    70   37   84 1   
    71   37   85 1   
    72   38   39 1   
    73   38   45 1   
    74   39   40 1   
    75   40   44 1   
    76   41   42 1   
    77   41   43 1   
    78   41   86 1   
    79   42   87 1   
    80   42   88 1   
    81   42   89 1   
    82   43   90 1   
    83   43   91 1   
    84   43   92 1   
    85   44   45 1   
@<TRIPOS>SUBSTRUCTURE
     1 7AW         1 TEMP              0 ****  ****    0 ROOT
