@<TRIPOS>MOLECULE
7AW
   93    95     1     0     0
SMALL
bcc


@<TRIPOS>ATOM
      1 O38         5.8910    0.3010   -1.5760 o         1 7AW     -0.589000
      2 C37         5.3540    0.5910   -0.4930 c         1 7AW      0.730100
      3 O39         5.7250    1.7700    0.1310 os        1 7AW     -0.451900
      4 C40         6.6600    2.5780   -0.6150 c3        1 7AW      0.232700
      5 C41         6.9970    3.7420    0.2220 cc        1 7AW     -0.213700
      6 S45         5.9450    4.9810    0.6700 ss        1 7AW     -0.051300
      7 C44         7.1970    5.7770    1.5010 cc        1 7AW      0.359300
      8 N43         8.3800    5.1650    1.4710 nd        1 7AW     -0.629000
      9 C42         8.2670    3.9960    0.7410 cd        1 7AW      0.345200
     10 N36         4.3480   -0.0720    0.1810 n         1 7AW     -0.515900
     11 C04         4.1040   -1.4780   -0.0920 c3        1 7AW      0.093700
     12 C03         4.8890   -2.4290    0.8290 c3        1 7AW     -0.109400
     13 C02         6.3770   -2.3860    0.5630 c3        1 7AW     -0.084400
     14 C01         7.1220   -3.3410    1.4590 c3        1 7AW     -0.092100
     15 C05         2.6090   -1.8160    0.0330 c3        1 7AW     -0.082400
     16 C06         1.7620   -1.0430   -0.9510 c3        1 7AW     -0.092400
     17 C07         0.3520   -1.6500   -1.0970 c3        1 7AW      0.101700
     18 C08        -0.3670   -0.8850   -2.2290 c3        1 7AW     -0.052100
     19 C09        -1.6430   -1.5240   -2.6440 ca        1 7AW     -0.074300
     20 C14        -2.8590   -0.8500   -2.4830 ca        1 7AW     -0.123000
     21 C13        -4.0530   -1.4410   -2.8960 ca        1 7AW     -0.131000
     22 C12        -4.0430   -2.7090   -3.4750 ca        1 7AW     -0.134000
     23 C11        -2.8340   -3.3860   -3.6410 ca        1 7AW     -0.131000
     24 C10        -1.6400   -2.7970   -3.2290 ca        1 7AW     -0.123000
     25 N15        -0.3920   -1.6390    0.1400 n         1 7AW     -0.554900
     26 C16        -0.7710   -2.7880    0.7900 c         1 7AW      0.650100
     27 O17        -0.4600   -3.9220    0.3710 o         1 7AW     -0.628100
     28 C18        -1.5530   -2.6100    2.1220 c3        1 7AW      0.048700
     29 C33        -1.8760   -3.9980    2.7180 c3        1 7AW     -0.072700
     30 C35        -2.2360   -3.8710    4.1820 c3        1 7AW     -0.095100
     31 C34        -2.9570   -4.7360    1.9600 c3        1 7AW     -0.095100
     32 N19        -2.7150   -1.7720    1.9630 n         1 7AW     -0.562900
     33 C20        -2.6380   -0.4060    2.2510 c         1 7AW      0.761100
     34 O21        -1.5060    0.1390    2.3530 o         1 7AW     -0.668100
     35 N22        -3.8170    0.3450    2.4700 n         1 7AW     -0.443800
     36 C23        -5.0980   -0.2020    2.1120 c3        1 7AW      0.067300
     37 C24        -3.6850    1.7840    2.4880 c3        1 7AW      0.067700
     38 C25        -3.7830    2.4840    1.1620 cc        1 7AW      0.300600
     39 N32        -4.8680    2.2960    0.3090 nc        1 7AW     -0.634000
     40 C28        -4.7210    3.0610   -0.7730 cd        1 7AW      0.402700
     41 C29        -5.6760    3.1360   -1.9180 c3        1 7AW     -0.092000
     42 C31        -5.8190    1.7840   -2.5910 c3        1 7AW     -0.089100
     43 C30        -7.0270    3.6520   -1.4620 c3        1 7AW     -0.089100
     44 S27        -3.2810    4.0130   -0.7770 ss        1 7AW     -0.098300
     45 C26        -2.8310    3.3880    0.7030 cd        1 7AW     -0.233400
     46 H1          7.5710    1.9590   -0.8420 h1        1 7AW      0.068700
     47 H2          6.1730    2.8810   -1.5810 h1        1 7AW      0.068700
     48 H3          7.0600    6.7240    2.0310 h5        1 7AW      0.055100
     49 H4          9.1520    3.3610    0.6140 h4        1 7AW      0.048100
     50 H5          4.1440    0.2450    1.1030 hn        1 7AW      0.316500
     51 H6          4.4290   -1.6700   -1.1600 h1        1 7AW      0.087700
     52 H7          4.6840   -2.1810    1.9030 hc        1 7AW      0.050200
     53 H8          4.5140   -3.4710    0.6510 hc        1 7AW      0.050200
     54 H9          6.5730   -2.6440   -0.5120 hc        1 7AW      0.046200
     55 H10         6.7640   -1.3440    0.7210 hc        1 7AW      0.046200
     56 H11         6.7730   -4.3890    1.2960 hc        1 7AW      0.034033
     57 H12         8.2180   -3.2970    1.2450 hc        1 7AW      0.034033
     58 H13         6.9620   -3.0820    2.5340 hc        1 7AW      0.034033
     59 H14         2.4940   -2.9170   -0.1580 hc        1 7AW      0.056700
     60 H15         2.2610   -1.6210    1.0800 hc        1 7AW      0.056700
     61 H16         1.6820    0.0290   -0.6350 hc        1 7AW      0.052200
     62 H17         2.2490   -1.0610   -1.9610 hc        1 7AW      0.052200
     63 H18         0.4640   -2.7310   -1.4210 h1        1 7AW      0.086700
     64 H19        -0.5460    0.1760   -1.9100 hc        1 7AW      0.053700
     65 H20         0.3270   -0.8570   -3.1130 hc        1 7AW      0.053700
     66 H21        -2.8760    0.1500   -2.0260 ha        1 7AW      0.132000
     67 H22        -5.0030   -0.9010   -2.7630 ha        1 7AW      0.130000
     68 H23        -4.9840   -3.1750   -3.8010 ha        1 7AW      0.129000
     69 H24        -2.8220   -4.3870   -4.0950 ha        1 7AW      0.130000
     70 H25        -0.6900   -3.3360   -3.3580 ha        1 7AW      0.132000
     71 H26        -0.6090   -0.7520    0.5370 hn        1 7AW      0.335500
     72 H27        -0.8290   -2.0950    2.8310 h1        1 7AW      0.089700
     73 H28        -0.9220   -4.5960    2.6280 hc        1 7AW      0.084700
     74 H29        -2.3870   -4.8870    4.6230 hc        1 7AW      0.039533
     75 H30        -1.4200   -3.3590    4.7470 hc        1 7AW      0.039533
     76 H31        -3.1780   -3.2880    4.3160 hc        1 7AW      0.039533
     77 H32        -2.7530   -4.6920    0.8620 hc        1 7AW      0.039533
     78 H33        -2.9690   -5.8080    2.2740 hc        1 7AW      0.039533
     79 H34        -3.9690   -4.3110    2.1630 hc        1 7AW      0.039533
     80 H35        -3.5930   -2.2260    1.8930 hn        1 7AW      0.322500
     81 H36        -5.3140   -1.0930    2.7630 h1        1 7AW      0.046367
     82 H37        -5.8970    0.5650    2.2890 h1        1 7AW      0.046367
     83 H38        -5.1450   -0.5140    1.0340 h1        1 7AW      0.046367
     84 H39        -4.5040    2.1820    3.1570 h1        1 7AW      0.080200
     85 H40        -2.6860    2.0430    2.9470 h1        1 7AW      0.080200
     86 H41        -5.2500    3.8650   -2.6680 hc        1 7AW      0.052700
     87 H42        -6.2870    1.0460   -1.8960 hc        1 7AW      0.043867
     88 H43        -6.4650    1.8810   -3.4970 hc        1 7AW      0.043867
     89 H44        -4.8190    1.3930   -2.9030 hc        1 7AW      0.043867
     90 H45        -6.9220    4.6520   -0.9770 hc        1 7AW      0.043867
     91 H46        -7.7080    3.7500   -2.3420 hc        1 7AW      0.043867
     92 H47        -7.4900    2.9480   -0.7300 hc        1 7AW      0.043867
     93 H48        -1.9130    3.6470    1.2260 h4        1 7AW      0.188000
@<TRIPOS>BOND
     1    1    2 2   
     2    2    3 1   
     3    2   10 1   
     4    3    4 1   
     5    4    5 1   
     6    4   46 1   
     7    4   47 1   
     8    5    6 1   
     9    5    9 2   
    10    6    7 1   
    11    7    8 2   
    12    7   48 1   
    13    8    9 1   
    14    9   49 1   
    15   10   11 1   
    16   10   50 1   
    17   11   12 1   
    18   11   15 1   
    19   11   51 1   
    20   12   13 1   
    21   12   52 1   
    22   12   53 1   
    23   13   14 1   
    24   13   54 1   
    25   13   55 1   
    26   14   56 1   
    27   14   57 1   
    28   14   58 1   
    29   15   16 1   
    30   15   59 1   
    31   15   60 1   
    32   16   17 1   
    33   16   61 1   
    34   16   62 1   
    35   17   18 1   
    36   17   25 1   
    37   17   63 1   
    38   18   19 1   
    39   18   64 1   
    40   18   65 1   
    41   19   20 ar  
    42   19   24 ar  
    43   20   21 ar  
    44   20   66 1   
    45   21   22 ar  
    46   21   67 1   
    47   22   23 ar  
    48   22   68 1   
    49   23   24 ar  
    50   23   69 1   
    51   24   70 1   
    52   25   26 1   
    53   25   71 1   
    54   26   27 2   
    55   26   28 1   
    56   28   29 1   
    57   28   32 1   
    58   28   72 1   
    59   29   30 1   
    60   29   31 1   
    61   29   73 1   
    62   30   74 1   
    63   30   75 1   
    64   30   76 1   
    65   31   77 1   
    66   31   78 1   
    67   31   79 1   
    68   32   33 1   
    69   32   80 1   
    70   33   34 2   
    71   33   35 1   
    72   35   36 1   
    73   35   37 1   
    74   36   81 1   
    75   36   82 1   
    76   36   83 1   
    77   37   38 1   
    78   37   84 1   
    79   37   85 1   
    80   38   39 1   
    81   38   45 2   
    82   39   40 2   
    83   40   41 1   
    84   40   44 1   
    85   41   42 1   
    86   41   43 1   
    87   41   86 1   
    88   42   87 1   
    89   42   88 1   
    90   42   89 1   
    91   43   90 1   
    92   43   91 1   
    93   43   92 1   
    94   44   45 1   
    95   45   93 1   
@<TRIPOS>SUBSTRUCTURE
     1 7AW         1 TEMP              0 ****  ****    0 ROOT
