@<TRIPOS>MOLECULE
7AW
   97    99     1     0     0
SMALL
bcc


@<TRIPOS>ATOM
      1 O38         2.7070    0.6200    0.1020 o         1 7AW     -0.488000
      2 C37         1.5340    0.9680    0.0100 c         1 7AW      0.643100
      3 O39         0.6750    1.2580    0.9790 os        1 7AW     -0.399900
      4 C40         1.1800    1.4470    2.3680 c3        1 7AW      0.272700
      5 C41         1.5250    2.8410    2.5870 cc        1 7AW     -0.361700
      6 S45         3.0410    3.4330    3.0300 ss        1 7AW     -0.022300
      7 C44         2.4190    5.0080    3.1550 cc        1 7AW      0.424300
      8 N43         1.1170    5.1320    2.8830 nd        1 7AW     -0.604000
      9 C42         0.5970    3.8970    2.5750 cd        1 7AW      0.415200
     10 N36         0.8500    1.0630   -1.3310 n4        1 7AW     -0.657800
     11 C04         1.0870   -0.1480   -2.2070 c3        1 7AW      0.137500
     12 C03        -0.2280   -0.6120   -2.8540 c3        1 7AW     -0.118400
     13 C02        -1.2850   -1.0200   -1.8470 c3        1 7AW     -0.094400
     14 C01        -2.4010   -1.7770   -2.5270 c3        1 7AW     -0.103100
     15 C05         2.1370    0.1080   -3.3020 c3        1 7AW     -0.102400
     16 C06         3.5650   -0.2250   -2.8990 c3        1 7AW     -0.118400
     17 C07         4.0120   -1.5840   -3.4580 c3        1 7AW      0.136500
     18 C08         3.2640   -2.7260   -2.7510 c3        1 7AW     -0.055100
     19 C09         3.7410   -4.0750   -3.1530 ca        1 7AW     -0.188300
     20 C14         4.5970   -4.7950   -2.3070 ca        1 7AW     -0.138500
     21 C13         4.9590   -6.1030   -2.6250 ca        1 7AW     -0.109500
     22 C12         4.4700   -6.7020   -3.7890 ca        1 7AW     -0.086000
     23 C11         3.6230   -5.9860   -4.6370 ca        1 7AW     -0.109500
     24 C10         3.2580   -4.6780   -4.3210 ca        1 7AW     -0.138500
     25 N15         5.5140   -1.7910   -3.3110 n4        1 7AW     -0.675800
     26 C16         6.3510   -1.2460   -4.4280 c         1 7AW      0.514100
     27 O17         5.8380   -0.4470   -5.1970 o         1 7AW     -0.399100
     28 C18         7.8140   -1.7570   -4.4980 c3        1 7AW      0.048700
     29 C33         8.5110   -1.5310   -3.1300 c3        1 7AW     -0.086700
     30 C35         9.9280   -2.0660   -3.1510 c3        1 7AW     -0.117100
     31 C34         8.4900   -0.0790   -2.7090 c3        1 7AW     -0.117100
     32 N19         8.5120   -1.1070   -5.5970 n         1 7AW     -0.518900
     33 C20         9.1160   -1.8320   -6.5950 c         1 7AW      0.665100
     34 O21         9.0470   -3.0570   -6.7600 o         1 7AW     -0.520100
     35 N22         9.9530   -1.0700   -7.6380 n4        1 7AW     -0.577200
     36 C23         9.1440   -0.8880   -8.8730 c3        1 7AW      0.080100
     37 C24        11.2710   -1.7670   -7.8800 c3        1 7AW      0.194100
     38 C25        11.3390   -2.7190   -9.0240 cc        1 7AW     -0.140600
     39 N32        10.8200   -4.0190   -8.9860 na        1 7AW     -0.098100
     40 C28        11.1940   -4.7360  -10.0860 cc        1 7AW     -0.010700
     41 C29        10.8400   -6.1700  -10.3310 c3        1 7AW     -0.036400
     42 C31         9.3610   -6.4340  -10.1320 c3        1 7AW     -0.118600
     43 C30        11.2800   -6.5630  -11.7300 c3        1 7AW     -0.118600
     44 S27        12.1420   -3.8490  -11.1500 ss        1 7AW      0.482200
     45 C26        12.0790   -2.5070  -10.1850 cd        1 7AW     -0.190100
     46 H1          0.2510    1.1320    2.9300 h1        1 7AW      0.112200
     47 H2          2.0290    0.7350    2.5330 h1        1 7AW      0.112200
     48 H3          3.0180    5.8790    3.4570 h5        1 7AW      0.090100
     49 H4         -0.4780    3.8100    2.3600 h4        1 7AW      0.063100
     50 H5          1.1860    1.9140   -1.7960 hn        1 7AW      0.480300
     51 H6          1.4560   -0.9690   -1.5180 hx        1 7AW      0.107700
     52 H7          0.0200   -1.5040   -3.4930 hc        1 7AW      0.086700
     53 H8         -0.6310    0.1830   -3.5370 hc        1 7AW      0.086700
     54 H9         -1.7260   -0.1190   -1.3420 hc        1 7AW      0.048700
     55 H10        -0.8280   -1.6660   -1.0520 hc        1 7AW      0.048700
     56 H11        -2.8720   -1.1570   -3.3280 hc        1 7AW      0.064033
     57 H12        -2.0220   -2.7220   -2.9840 hc        1 7AW      0.064033
     58 H13        -3.1910   -2.0410   -1.7800 hc        1 7AW      0.064033
     59 H14         1.8430   -0.5000   -4.2020 hc        1 7AW      0.093200
     60 H15         2.1010    1.1800   -3.6430 hc        1 7AW      0.093200
     61 H16         4.2380    0.5780   -3.3100 hc        1 7AW      0.085200
     62 H17         3.6670   -0.2160   -1.7790 hc        1 7AW      0.085200
     63 H18         3.8000   -1.6280   -4.5690 hx        1 7AW      0.117700
     64 H19         3.3420   -2.6020   -1.6370 hc        1 7AW      0.091200
     65 H20         2.1780   -2.6100   -3.0270 hc        1 7AW      0.091200
     66 H21         4.9280   -4.3610   -1.3510 ha        1 7AW      0.137000
     67 H22         5.6030   -6.6790   -1.9390 ha        1 7AW      0.170500
     68 H23         4.7290   -7.7490   -4.0210 ha        1 7AW      0.175000
     69 H24         3.2140   -6.4670   -5.5420 ha        1 7AW      0.170500
     70 H25         2.5580   -4.1350   -4.9750 ha        1 7AW      0.137000
     71 H26         5.8240   -1.3480   -2.4340 hn        1 7AW      0.479300
     72 H27         7.7730   -2.8740   -4.7070 h1        1 7AW      0.140700
     73 H28         7.9430   -2.1490   -2.3740 hc        1 7AW      0.071700
     74 H29        10.5970   -1.4260   -3.7740 hc        1 7AW      0.067200
     75 H30         9.9550   -3.1140   -3.5350 hc        1 7AW      0.067200
     76 H31        10.3380   -2.0670   -2.1070 hc        1 7AW      0.067200
     77 H32         7.4610    0.3500   -2.7750 hc        1 7AW      0.067200
     78 H33         8.8420    0.0100   -1.6480 hc        1 7AW      0.067200
     79 H34         9.1760    0.5420   -3.3350 hc        1 7AW      0.067200
     80 H35        10.2580   -4.3810   -8.2360 hn        1 7AW      0.361700
     81 H36         8.7870   -1.8870   -9.2430 hx        1 7AW      0.123367
     82 H37         8.2590   -0.2320   -8.6470 hx        1 7AW      0.123367
     83 H38         9.7800   -0.3960   -9.6610 hx        1 7AW      0.123367
     84 H39        12.0350   -0.9490   -8.0790 hx        1 7AW      0.144200
     85 H40        11.5590   -2.2980   -6.9210 hx        1 7AW      0.144200
     86 H41        11.4230   -6.7930   -9.5820 hc        1 7AW      0.124700
     87 H42         9.1520   -7.5120  -10.3620 hc        1 7AW      0.075033
     88 H43         9.0520   -6.2390   -9.0780 hc        1 7AW      0.075033
     89 H44         8.7430   -5.8100  -10.8220 hc        1 7AW      0.075033
     90 H45        10.6390   -6.0800  -12.5090 hc        1 7AW      0.075033
     91 H46        12.3530   -6.2980  -11.9090 hc        1 7AW      0.075033
     92 H47        11.1820   -7.6740  -11.8510 hc        1 7AW      0.075033
     93 H48        12.5900   -1.5630  -10.4260 h4        1 7AW      0.244000
     94 H362       -0.1670    1.1670   -1.1660 hn        1 7AW      0.480300
     95 H152        5.6780   -2.8140   -3.2340 hn        1 7AW      0.479300
     96 H192        8.6440   -0.1200   -5.5100 hn        1 7AW      0.365500
     97 H221       10.1910   -0.1330   -7.2780 hn        1 7AW      0.470800
@<TRIPOS>BOND
     1    1    2 2   
     2    2    3 1   
     3    2   10 1   
     4    3    4 1   
     5    4    5 1   
     6    4   46 1   
     7    4   47 1   
     8    5    6 1   
     9    5    9 2   
    10    6    7 1   
    11    7    8 2   
    12    7   48 1   
    13    8    9 1   
    14    9   49 1   
    15   10   11 1   
    16   10   50 1   
    17   10   94 1   
    18   11   12 1   
    19   11   15 1   
    20   11   51 1   
    21   12   13 1   
    22   12   52 1   
    23   12   53 1   
    24   13   14 1   
    25   13   54 1   
    26   13   55 1   
    27   14   56 1   
    28   14   57 1   
    29   14   58 1   
    30   15   16 1   
    31   15   59 1   
    32   15   60 1   
    33   16   17 1   
    34   16   61 1   
    35   16   62 1   
    36   17   18 1   
    37   17   25 1   
    38   17   63 1   
    39   18   19 1   
    40   18   64 1   
    41   18   65 1   
    42   19   20 ar  
    43   19   24 ar  
    44   20   21 ar  
    45   20   66 1   
    46   21   22 ar  
    47   21   67 1   
    48   22   23 ar  
    49   22   68 1   
    50   23   24 ar  
    51   23   69 1   
    52   24   70 1   
    53   25   26 1   
    54   25   71 1   
    55   25   95 1   
    56   26   27 2   
    57   26   28 1   
    58   28   29 1   
    59   28   32 1   
    60   28   72 1   
    61   29   30 1   
    62   29   31 1   
    63   29   73 1   
    64   30   74 1   
    65   30   75 1   
    66   30   76 1   
    67   31   77 1   
    68   31   78 1   
    69   31   79 1   
    70   32   33 1   
    71   32   96 1   
    72   33   34 2   
    73   33   35 1   
    74   35   36 1   
    75   35   37 1   
    76   35   97 1   
    77   36   81 1   
    78   36   82 1   
    79   36   83 1   
    80   37   38 1   
    81   37   84 1   
    82   37   85 1   
    83   38   39 1   
    84   38   45 2   
    85   39   40 2   
    86   39   80 1   
    87   40   41 1   
    88   40   44 1   
    89   41   42 1   
    90   41   43 1   
    91   41   86 1   
    92   42   87 1   
    93   42   88 1   
    94   42   89 1   
    95   43   90 1   
    96   43   91 1   
    97   43   92 1   
    98   44   45 1   
    99   45   93 1   
@<TRIPOS>SUBSTRUCTURE
     1 7AW         1 TEMP              0 ****  ****    0 ROOT
