@<TRIPOS>MOLECULE
7AW
   97    99     1     0     0
SMALL
bcc


@<TRIPOS>ATOM
      1 O38         2.3590    0.3380   -0.0160 o         1 7AW     -0.488000
      2 C37         1.1670    0.5990   -0.1450 c         1 7AW      0.643100
      3 O39         0.2590    0.8230    0.7960 os        1 7AW     -0.399900
      4 C40         0.7050    1.0430    2.2010 c3        1 7AW      0.272700
      5 C41         0.9410    2.4580    2.4310 cc        1 7AW     -0.361700
      6 S45         2.3960    3.1550    2.9250 ss        1 7AW     -0.022300
      7 C44         1.6590    4.6810    3.0290 cc        1 7AW      0.424300
      8 N43         0.3610    4.7130    2.7130 nd        1 7AW     -0.604000
      9 C42        -0.0590    3.4450    2.3880 cd        1 7AW      0.415200
     10 N36         0.5210    0.6460   -1.5070 n4        1 7AW     -0.657800
     11 C04         0.8760   -0.5400   -2.3770 c3        1 7AW      0.136500
     12 C03        -0.3800   -1.0980   -3.0660 c3        1 7AW     -0.118400
     13 C02        -1.4350   -1.5890   -2.0940 c3        1 7AW     -0.094400
     14 C01        -2.4690   -2.4250   -2.8100 c3        1 7AW     -0.103100
     15 C05         1.9380   -0.2010   -3.4370 c3        1 7AW     -0.102400
     16 C06         3.3730   -0.4270   -2.9890 c3        1 7AW     -0.118400
     17 C07         3.9380   -1.7480   -3.5350 c3        1 7AW      0.136500
     18 C08         3.2550   -2.9450   -2.8550 c3        1 7AW     -0.055100
     19 C09         3.8430   -4.2530   -3.2440 ca        1 7AW     -0.188300
     20 C14         4.7210   -4.9130   -2.3710 ca        1 7AW     -0.138000
     21 C13         5.1890   -6.1890   -2.6810 ca        1 7AW     -0.109500
     22 C12         4.7860   -6.8150   -3.8620 ca        1 7AW     -0.086000
     23 C11         3.9180   -6.1600   -4.7370 ca        1 7AW     -0.109500
     24 C10         3.4470   -4.8830   -4.4300 ca        1 7AW     -0.138000
     25 N15         5.4460   -1.8430   -3.3410 n4        1 7AW     -0.675800
     26 C16         6.2740   -1.2420   -4.4350 c         1 7AW      0.512100
     27 O17         5.7340   -0.4650   -5.2080 o         1 7AW     -0.401100
     28 C18         7.7650   -1.6710   -4.4790 c3        1 7AW      0.048700
     29 C33         8.4240   -1.3940   -3.1010 c3        1 7AW     -0.084700
     30 C35         9.8680   -1.8510   -3.0930 c3        1 7AW     -0.117100
     31 C34         8.3160    0.0580   -2.6950 c3        1 7AW     -0.117100
     32 N19         8.4480   -0.9930   -5.5690 n         1 7AW     -0.510900
     33 C20         9.0000   -1.6890   -6.6110 c         1 7AW      0.662100
     34 O21         8.9550   -2.9170   -6.7820 o         1 7AW     -0.527100
     35 N22         9.7650   -0.9470   -7.7200 n4        1 7AW     -0.579200
     36 C23         9.6760    0.5340   -7.6680 c3        1 7AW      0.063100
     37 C24        11.2070   -1.4120   -7.7290 c3        1 7AW      0.192100
     38 C25        11.5340   -2.3560   -8.8350 cc        1 7AW     -0.158600
     39 N32        11.1170   -3.6930   -8.8580 na        1 7AW     -0.102100
     40 C28        11.6810   -4.3700   -9.9000 cc        1 7AW     -0.005700
     41 C29        11.4690   -5.8240  -10.1900 c3        1 7AW     -0.036400
     42 C31        10.0010   -6.2000  -10.1750 c3        1 7AW     -0.119100
     43 C30        12.1050   -6.1660  -11.5260 c3        1 7AW     -0.119100
     44 S27        12.6850   -3.4040  -10.8390 ss        1 7AW      0.482200
     45 C26        12.3960   -2.0780   -9.8920 cd        1 7AW     -0.179100
     46 H1          1.5960    0.3940    2.3930 h1        1 7AW      0.112200
     47 H2         -0.2170    0.6610    2.7320 h1        1 7AW      0.112200
     48 H3          2.1840    5.5920    3.3510 h5        1 7AW      0.090100
     49 H4         -1.1170    3.2830    2.1370 h4        1 7AW      0.063100
     50 H5          0.8060    1.5230   -1.9600 hn        1 7AW      0.480300
     51 H6          1.2830   -1.3330   -1.6770 hx        1 7AW      0.107700
     52 H7         -0.8200   -0.3340   -3.7600 hc        1 7AW      0.086700
     53 H8         -0.0450   -1.9670   -3.6980 hc        1 7AW      0.086700
     54 H9         -1.9580   -0.7260   -1.6020 hc        1 7AW      0.048700
     55 H10        -0.9550   -2.2020   -1.2860 hc        1 7AW      0.048700
     56 H11        -2.0050   -3.3370   -3.2560 hc        1 7AW      0.064033
     57 H12        -3.2590   -2.7500   -2.0890 hc        1 7AW      0.064033
     58 H13        -2.9590   -1.8390   -3.6250 hc        1 7AW      0.064033
     59 H14         1.8310    0.8670   -3.7770 hc        1 7AW      0.093200
     60 H15         1.7180   -0.8260   -4.3480 hc        1 7AW      0.093200
     61 H16         3.4390   -0.4150   -1.8670 hc        1 7AW      0.085200
     62 H17         3.9960    0.4250   -3.3780 hc        1 7AW      0.085200
     63 H18         3.7650   -1.8030   -4.6530 hx        1 7AW      0.117700
     64 H19         3.2880   -2.8200   -1.7380 hc        1 7AW      0.091200
     65 H20         2.1720   -2.9090   -3.1660 hc        1 7AW      0.091200
     66 H21         4.9860   -4.4610   -1.4030 ha        1 7AW      0.137000
     67 H22         5.8490   -6.7200   -1.9740 ha        1 7AW      0.170500
     68 H23         5.1300   -7.8390   -4.0890 ha        1 7AW      0.175000
     69 H24         3.5770   -6.6640   -5.6570 ha        1 7AW      0.170500
     70 H25         2.7310   -4.3900   -5.1060 ha        1 7AW      0.137000
     71 H26         5.6940   -1.3740   -2.4580 hn        1 7AW      0.479300
     72 H27         7.7900   -2.7910   -4.6760 h1        1 7AW      0.140700
     73 H28         7.8770   -2.0340   -2.3500 hc        1 7AW      0.071700
     74 H29        10.2620   -1.8120   -2.0430 hc        1 7AW      0.067200
     75 H30        10.5120   -1.1870   -3.7180 hc        1 7AW      0.067200
     76 H31         9.9580   -2.9030   -3.4570 hc        1 7AW      0.067200
     77 H32         8.6400    0.1750   -1.6280 hc        1 7AW      0.067200
     78 H33         8.9800    0.7100   -3.3120 hc        1 7AW      0.067200
     79 H34         7.2670    0.4300   -2.7870 hc        1 7AW      0.067200
     80 H35         8.5690   -0.0050   -5.4730 hn        1 7AW      0.369500
     81 H36         8.5970    0.8540   -7.6690 hx        1 7AW      0.126033
     82 H37        10.2070    0.9300   -6.7600 hx        1 7AW      0.126033
     83 H38        10.1690    0.9650   -8.5870 hx        1 7AW      0.126033
     84 H39        11.4350   -1.8890   -6.7270 hx        1 7AW      0.145200
     85 H40        11.8730   -0.5000   -7.8400 hx        1 7AW      0.145200
     86 H41        12.0010   -6.4100   -9.3760 hc        1 7AW      0.124700
     87 H42         9.4260   -5.6150  -10.9320 hc        1 7AW      0.075867
     88 H43         9.9030   -7.2870  -10.4330 hc        1 7AW      0.075867
     89 H44         9.5530   -6.0430   -9.1650 hc        1 7AW      0.075867
     90 H45        11.5280   -5.7270  -12.3760 hc        1 7AW      0.075867
     91 H46        13.1680   -5.8180  -11.5720 hc        1 7AW      0.075867
     92 H47        12.1100   -7.2800  -11.6580 hc        1 7AW      0.075867
     93 H48        12.8560   -1.0940  -10.0700 h4        1 7AW      0.245000
     94 H362       -0.5060    0.6740   -1.3750 hn        1 7AW      0.480300
     95 H152        5.6830   -2.8500   -3.2520 hn        1 7AW      0.479300
     96 H192       10.4960   -4.1040   -8.1850 hn        1 7AW      0.360700
     97 H221        9.3170   -1.2570   -8.6000 hn        1 7AW      0.480800
@<TRIPOS>BOND
     1    1    2 2   
     2    2    3 1   
     3    2   10 1   
     4    3    4 1   
     5    4    5 1   
     6    4   46 1   
     7    4   47 1   
     8    5    6 1   
     9    5    9 2   
    10    6    7 1   
    11    7    8 2   
    12    7   48 1   
    13    8    9 1   
    14    9   49 1   
    15   10   11 1   
    16   10   50 1   
    17   10   94 1   
    18   11   12 1   
    19   11   15 1   
    20   11   51 1   
    21   12   13 1   
    22   12   52 1   
    23   12   53 1   
    24   13   14 1   
    25   13   54 1   
    26   13   55 1   
    27   14   56 1   
    28   14   57 1   
    29   14   58 1   
    30   15   16 1   
    31   15   59 1   
    32   15   60 1   
    33   16   17 1   
    34   16   61 1   
    35   16   62 1   
    36   17   18 1   
    37   17   25 1   
    38   17   63 1   
    39   18   19 1   
    40   18   64 1   
    41   18   65 1   
    42   19   20 ar  
    43   19   24 ar  
    44   20   21 ar  
    45   20   66 1   
    46   21   22 ar  
    47   21   67 1   
    48   22   23 ar  
    49   22   68 1   
    50   23   24 ar  
    51   23   69 1   
    52   24   70 1   
    53   25   26 1   
    54   25   71 1   
    55   25   95 1   
    56   26   27 2   
    57   26   28 1   
    58   28   29 1   
    59   28   32 1   
    60   28   72 1   
    61   29   30 1   
    62   29   31 1   
    63   29   73 1   
    64   30   74 1   
    65   30   75 1   
    66   30   76 1   
    67   31   77 1   
    68   31   78 1   
    69   31   79 1   
    70   32   33 1   
    71   32   80 1   
    72   33   34 2   
    73   33   35 1   
    74   35   36 1   
    75   35   37 1   
    76   35   97 1   
    77   36   81 1   
    78   36   82 1   
    79   36   83 1   
    80   37   38 1   
    81   37   84 1   
    82   37   85 1   
    83   38   39 1   
    84   38   45 2   
    85   39   40 2   
    86   39   96 1   
    87   40   41 1   
    88   40   44 1   
    89   41   42 1   
    90   41   43 1   
    91   41   86 1   
    92   42   87 1   
    93   42   88 1   
    94   42   89 1   
    95   43   90 1   
    96   43   91 1   
    97   43   92 1   
    98   44   45 1   
    99   45   93 1   
@<TRIPOS>SUBSTRUCTURE
     1 7AW         1 TEMP              0 ****  ****    0 ROOT
