@<TRIPOS>MOLECULE
7B7
   56    58     1     0     0
SMALL
bcc


@<TRIPOS>ATOM
      1 CAA         1.7860   -3.5680    1.4010 c3        1 7B7      0.111700
      2 OAT         2.9540   -2.7660    1.2200 os        1 7B7     -0.349900
      3 CAY         3.0030   -1.5970    1.9540 ca        1 7B7      0.152100
      4 CAG         2.2280   -1.3780    3.1030 ca        1 7B7     -0.193000
      5 CAE         2.3560   -0.1820    3.8030 ca        1 7B7     -0.065000
      6 CAF         3.2480    0.8000    3.3650 ca        1 7B7     -0.154000
      7 CAH         4.0100    0.5840    2.2220 ca        1 7B7     -0.094000
      8 CAZ         3.9050   -0.6110    1.5010 ca        1 7B7     -0.168300
      9 CBA         4.6870   -0.8190    0.2380 c3        1 7B7      0.164000
     10 CAP         4.3090    0.2310   -0.8340 c3        1 7B7     -0.090400
     11 CAM         5.5260    1.1230   -1.0500 c3        1 7B7     -0.087400
     12 CAQ         6.6750    0.5110   -0.2350 c3        1 7B7      0.064000
     13 NBB         6.1520   -0.6800    0.4250 n         1 7B7     -0.381800
     14 C           6.9100   -1.5760    1.0730 c         1 7B7      0.654100
     15 O           6.5020   -2.6530    1.5890 o         1 7B7     -0.704100
     16 CA          8.4270   -1.2790    1.2100 c3        1 7B7      0.004800
     17 N           9.0840   -2.2550    2.1420 n4        1 7B7     -0.637800
     18 CAU         9.3750   -3.5690    1.4600 c         1 7B7      0.495100
     19 OAC        10.4140   -3.6540    0.8190 o         1 7B7     -0.344100
     20 NAS         8.4510   -4.6960    1.6430 n4        1 7B7     -0.687800
     21 CAO         8.7310   -5.5250    2.9500 c3        1 7B7      0.239100
     22 CAX         8.0930   -6.8180    2.8050 ca        1 7B7     -0.317300
     23 CAK         8.8190   -7.9260    2.3010 ca        1 7B7     -0.009500
     24 CAI         8.2570   -9.1750    2.2350 ca        1 7B7     -0.225000
     25 CAW         6.9060   -9.3940    2.6770 ca        1 7B7      0.298600
     26 NAB         6.3460  -10.6200    2.6260 nh        1 7B7     -0.798200
     27 CAJ         6.1730   -8.2600    3.1700 ca        1 7B7     -0.225000
     28 CAL         6.7570   -7.0200    3.2260 ca        1 7B7     -0.009500
     29 H1          0.8580   -2.9550    1.3030 h1        1 7B7      0.055367
     30 H2          1.8220   -4.0750    2.3960 h1        1 7B7      0.055367
     31 H3          1.8560   -4.3170    0.5720 h1        1 7B7      0.055367
     32 H4          1.5140   -2.1400    3.4490 ha        1 7B7      0.155000
     33 H5          1.7430   -0.0070    4.7020 ha        1 7B7      0.157000
     34 H6          3.3340    1.7490    3.9160 ha        1 7B7      0.154000
     35 H7          4.6900    1.3720    1.8600 ha        1 7B7      0.128000
     36 H8          4.5000   -1.8650   -0.1490 h1        1 7B7      0.105700
     37 H9          4.0240   -0.2910   -1.7820 hc        1 7B7      0.087700
     38 H10         3.4280    0.8300   -0.4920 hc        1 7B7      0.087700
     39 H11         5.8020    1.1720   -2.1320 hc        1 7B7      0.083200
     40 H12         5.3240    2.1660   -0.6990 hc        1 7B7      0.083200
     41 H13         7.5350    0.2310   -0.9040 h1        1 7B7      0.056700
     42 H14         7.0440    1.2400    0.5400 h1        1 7B7      0.056700
     43 H15         8.9330   -1.3300    0.2030 hx        1 7B7      0.146200
     44 H16         8.5770   -0.2460    1.6480 hx        1 7B7      0.146200
     45 H17         9.9840   -1.8570    2.4590 hn        1 7B7      0.495300
     46 H18         8.5710   -5.3380    0.8380 hn        1 7B7      0.499300
     47 H19         8.2990   -4.9040    3.7820 hx        1 7B7      0.097700
     48 H20         9.8510   -5.5940    3.0290 hx        1 7B7      0.097700
     49 H21         9.8650   -7.7870    1.9770 ha        1 7B7      0.144000
     50 H22         8.8480  -10.0240    1.8530 ha        1 7B7      0.170500
     51 H23         6.8660  -11.4030    2.3020 hn        1 7B7      0.465300
     52 H24         5.4190  -10.7700    2.9510 hn        1 7B7      0.465300
     53 H25         5.1350   -8.3950    3.5170 ha        1 7B7      0.170500
     54 H26         6.1790   -6.1680    3.6240 ha        1 7B7      0.144000
     55 H27         8.4560   -2.3960    2.9520 hn        1 7B7      0.495300
     56 HAS2        7.4570   -4.3840    1.6510 hn        1 7B7      0.499300
@<TRIPOS>BOND
     1    1    2 1   
     2    1   29 1   
     3    1   30 1   
     4    1   31 1   
     5    2    3 1   
     6    3    4 ar  
     7    3    8 ar  
     8    4    5 ar  
     9    4   32 1   
    10    5    6 ar  
    11    5   33 1   
    12    6    7 ar  
    13    6   34 1   
    14    7    8 ar  
    15    7   35 1   
    16    8    9 1   
    17    9   10 1   
    18    9   13 1   
    19    9   36 1   
    20   10   11 1   
    21   10   37 1   
    22   10   38 1   
    23   11   12 1   
    24   11   39 1   
    25   11   40 1   
    26   12   13 1   
    27   12   41 1   
    28   12   42 1   
    29   13   14 1   
    30   14   15 2   
    31   14   16 1   
    32   16   17 1   
    33   16   43 1   
    34   16   44 1   
    35   17   18 1   
    36   17   45 1   
    37   17   55 1   
    38   18   19 2   
    39   18   20 1   
    40   20   21 1   
    41   20   46 1   
    42   20   56 1   
    43   21   22 1   
    44   21   47 1   
    45   21   48 1   
    46   22   23 ar  
    47   22   28 ar  
    48   23   24 ar  
    49   23   49 1   
    50   24   25 ar  
    51   24   50 1   
    52   25   26 1   
    53   25   27 ar  
    54   26   51 1   
    55   26   52 1   
    56   27   28 ar  
    57   27   53 1   
    58   28   54 1   
@<TRIPOS>SUBSTRUCTURE
     1 7B7         1 TEMP              0 ****  ****    0 ROOT
