@<TRIPOS>MOLECULE
7B7
   57    59     1     0     0
SMALL
bcc


@<TRIPOS>ATOM
      1 CAA         2.0440   -3.7820    0.4690 c3        1 7B7      0.111700
      2 OAT         3.2180   -3.0130    0.7490 os        1 7B7     -0.365900
      3 CAY         2.9940   -1.8220    1.4170 ca        1 7B7      0.142100
      4 CAG         1.9420   -1.6570    2.3310 ca        1 7B7     -0.185000
      5 CAE         1.7940   -0.4470    3.0010 ca        1 7B7     -0.062000
      6 CAF         2.6860    0.6030    2.7650 ca        1 7B7     -0.142000
      7 CAH         3.7230    0.4410    1.8520 ca        1 7B7     -0.098000
      8 CAZ         3.8950   -0.7690    1.1660 ca        1 7B7     -0.172300
      9 CBA         4.9660   -0.9160    0.1280 c3        1 7B7      0.162000
     10 CAP         4.7710    0.0910   -1.0300 c3        1 7B7     -0.091400
     11 CAM         5.9150    1.0950   -0.9640 c3        1 7B7     -0.088400
     12 CAQ         6.8840    0.5970    0.1170 c3        1 7B7      0.056000
     13 NBB         6.3320   -0.6470    0.6540 n         1 7B7     -0.351800
     14 C           6.9900   -1.4600    1.4820 c         1 7B7      0.650100
     15 O           6.5770   -2.5790    1.9180 o         1 7B7     -0.752100
     16 CA          8.3930   -1.0250    1.9810 c3        1 7B7      0.005800
     17 N           8.8470   -1.8900    3.1300 n4        1 7B7     -0.626800
     18 CAU         9.3110   -3.2390    2.6660 c         1 7B7      0.503100
     19 OAC        10.4280   -3.3550    2.1890 o         1 7B7     -0.299100
     20 NAS         8.3910   -4.4070    2.7900 n4        1 7B7     -0.654800
     21 CAO         9.0550   -5.6810    2.3000 c3        1 7B7      0.175100
     22 CAX         8.2300   -6.8950    2.5750 ca        1 7B7     -0.148300
     23 CAK         7.1660   -7.2370    1.7300 ca        1 7B7     -0.063500
     24 CAI         6.5040   -8.4560    1.8810 ca        1 7B7     -0.086000
     25 CAW         6.9180   -9.3450    2.8900 ca        1 7B7      0.003600
     26 NAB         6.2690  -10.6520    3.0200 n4        1 7B7     -0.717000
     27 CAJ         7.9670   -8.9990    3.7600 ca        1 7B7     -0.086000
     28 CAL         8.6150   -7.7730    3.5970 ca        1 7B7     -0.063500
     29 H1          1.7330   -4.3380    1.3860 h1        1 7B7      0.055700
     30 H2          2.3770   -4.4900   -0.3310 h1        1 7B7      0.055700
     31 H3          1.2130   -3.1340    0.1010 h1        1 7B7      0.055700
     32 H4          1.2260   -2.4750    2.5070 ha        1 7B7      0.157000
     33 H5          0.9620   -0.3120    3.7120 ha        1 7B7      0.165000
     34 H6          2.5540    1.5640    3.2860 ha        1 7B7      0.163000
     35 H7          4.4010    1.2820    1.6400 ha        1 7B7      0.131000
     36 H8          4.9670   -1.9770   -0.2630 h1        1 7B7      0.103700
     37 H9          3.7810    0.6050   -0.9290 hc        1 7B7      0.094200
     38 H10         4.7750   -0.4570   -2.0050 hc        1 7B7      0.094200
     39 H11         5.5380    2.1150   -0.6960 hc        1 7B7      0.092700
     40 H12         6.4400    1.1730   -1.9500 hc        1 7B7      0.092700
     41 H13         6.9760    1.3540    0.9460 h1        1 7B7      0.064700
     42 H14         7.9040    0.4030   -0.3160 h1        1 7B7      0.064700
     43 H15         8.3570    0.0390    2.3740 hx        1 7B7      0.158700
     44 H16         9.1520   -1.0850    1.1460 hx        1 7B7      0.158700
     45 H17         9.6520   -1.4260    3.5940 hn        1 7B7      0.509300
     46 H18         8.0930   -4.5240    3.7690 hn        1 7B7      0.512300
     47 H19        10.0650   -5.7630    2.8040 hx        1 7B7      0.141200
     48 H20         9.2200   -5.5590    1.1860 hx        1 7B7      0.141200
     49 H21         6.8490   -6.5610    0.9150 ha        1 7B7      0.181000
     50 H22         5.6760   -8.7040    1.1910 ha        1 7B7      0.194500
     51 H23         6.7800  -11.3490    2.4550 hn        1 7B7      0.486800
     52 H24         5.2950  -10.6050    2.6880 hn        1 7B7      0.486800
     53 H25         8.3040   -9.6780    4.5660 ha        1 7B7      0.194500
     54 H26         9.4550   -7.5280    4.2710 ha        1 7B7      0.181000
     55 H27         8.0550   -1.9680    3.7930 hn        1 7B7      0.509300
     56 HAS2        7.5270   -4.2160    2.2130 hn        1 7B7      0.512300
     57 HAB3        6.2720  -10.9580    4.0040 hn        1 7B7      0.486800
@<TRIPOS>BOND
     1    1    2 1   
     2    1   29 1   
     3    1   30 1   
     4    1   31 1   
     5    2    3 1   
     6    3    4 ar  
     7    3    8 ar  
     8    4    5 ar  
     9    4   32 1   
    10    5    6 ar  
    11    5   33 1   
    12    6    7 ar  
    13    6   34 1   
    14    7    8 ar  
    15    7   35 1   
    16    8    9 1   
    17    9   10 1   
    18    9   13 1   
    19    9   36 1   
    20   10   11 1   
    21   10   37 1   
    22   10   38 1   
    23   11   12 1   
    24   11   39 1   
    25   11   40 1   
    26   12   13 1   
    27   12   41 1   
    28   12   42 1   
    29   13   14 1   
    30   14   15 2   
    31   14   16 1   
    32   16   17 1   
    33   16   43 1   
    34   16   44 1   
    35   17   18 1   
    36   17   45 1   
    37   17   55 1   
    38   18   19 2   
    39   18   20 1   
    40   20   21 1   
    41   20   46 1   
    42   20   56 1   
    43   21   22 1   
    44   21   47 1   
    45   21   48 1   
    46   22   23 ar  
    47   22   28 ar  
    48   23   24 ar  
    49   23   49 1   
    50   24   25 ar  
    51   24   50 1   
    52   25   26 1   
    53   25   27 ar  
    54   26   51 1   
    55   26   52 1   
    56   26   57 1   
    57   27   28 ar  
    58   27   53 1   
    59   28   54 1   
@<TRIPOS>SUBSTRUCTURE
     1 7B7         1 TEMP              0 ****  ****    0 ROOT
