@<TRIPOS>MOLECULE
7B7
   56    58     1     0     0
SMALL
bcc


@<TRIPOS>ATOM
      1 CAA         1.7950   -3.5710    1.2720 c3        1 7B7      0.111700
      2 OAT         2.9650   -2.7610    1.1470 os        1 7B7     -0.349900
      3 CAY         2.9910   -1.6140    1.9170 ca        1 7B7      0.152100
      4 CAG         2.1860   -1.4330    3.0520 ca        1 7B7     -0.193000
      5 CAE         2.2920   -0.2590    3.7910 ca        1 7B7     -0.065000
      6 CAF         3.1920    0.7380    3.4080 ca        1 7B7     -0.154000
      7 CAH         3.9840    0.5600    2.2790 ca        1 7B7     -0.094000
      8 CAZ         3.9010   -0.6130    1.5190 ca        1 7B7     -0.168300
      9 CBA         4.7160   -0.7800    0.2710 c3        1 7B7      0.164000
     10 CAP         4.3630    0.3000   -0.7780 c3        1 7B7     -0.090400
     11 CAM         5.5820    1.2010   -0.9360 c3        1 7B7     -0.087400
     12 CAQ         6.7120    0.5690   -0.1100 c3        1 7B7      0.064000
     13 NBB         6.1760   -0.6430    0.5000 n         1 7B7     -0.381800
     14 C           6.9200   -1.5560    1.1400 c         1 7B7      0.654100
     15 O           6.5020   -2.6480    1.6140 o         1 7B7     -0.704100
     16 CA          8.4320   -1.2590    1.3250 c3        1 7B7      0.004800
     17 N           9.0690   -2.2600    2.2450 ny        1 7B7     -0.636800
     18 CAU         9.3790   -3.5540    1.5330 c         1 7B7      0.495100
     19 OAC        10.4330   -3.6170    0.9140 o         1 7B7     -0.344100
     20 NAS         8.4550   -4.6880    1.6630 ny        1 7B7     -0.686800
     21 CAO         8.7090   -5.5530    2.9530 c3        1 7B7      0.239100
     22 CAX         8.0770   -6.8420    2.7570 ca        1 7B7     -0.317300
     23 CAK         8.8160   -7.9340    2.2390 ca        1 7B7     -0.009500
     24 CAI         8.2580   -9.1810    2.1260 ca        1 7B7     -0.225000
     25 CAW         6.8990   -9.4150    2.5320 ca        1 7B7      0.298600
     26 NAB         6.3430  -10.6400    2.4350 nv        1 7B7     -0.798200
     27 CAJ         6.1530   -8.2970    3.0410 ca        1 7B7     -0.225000
     28 CAL         6.7330   -7.0580    3.1450 ca        1 7B7     -0.009500
     29 H1          0.8680   -2.9570    1.1690 h1        1 7B7      0.055367
     30 H2          1.8060   -4.1080    2.2520 h1        1 7B7      0.055367
     31 H3          1.8880   -4.2940    0.4230 h1        1 7B7      0.055367
     32 H4          1.4660   -2.2070    3.3560 ha        1 7B7      0.155000
     33 H5          1.6550   -0.1130    4.6790 ha        1 7B7      0.157000
     34 H6          3.2600    1.6700    3.9890 ha        1 7B7      0.154000
     35 H7          4.6700    1.3600    1.9590 ha        1 7B7      0.128000
     36 H8          4.5440   -1.8150   -0.1530 h1        1 7B7      0.105700
     37 H9          3.4710    0.8870   -0.4410 hc        1 7B7      0.087700
     38 H10         4.1040   -0.1940   -1.7480 hc        1 7B7      0.087700
     39 H11         5.3670    2.2330   -0.5590 hc        1 7B7      0.083200
     40 H12         5.8860    1.2840   -2.0090 hc        1 7B7      0.083200
     41 H13         7.5900    0.3100   -0.7650 h1        1 7B7      0.056700
     42 H14         7.0580    1.2750    0.6960 h1        1 7B7      0.056700
     43 H15         8.9640   -1.2800    0.3300 hx        1 7B7      0.145700
     44 H16         8.5680   -0.2390    1.7970 hx        1 7B7      0.145700
     45 H17         8.4210   -2.4250    3.0350 hn        1 7B7      0.495300
     46 H18         7.4600   -4.3790    1.6580 hn        1 7B7      0.499300
     47 H19         9.8280   -5.6220    3.0530 hx        1 7B7      0.097700
     48 H20         8.2590   -4.9560    3.7920 hx        1 7B7      0.097700
     49 H21         9.8680   -7.7850    1.9410 ha        1 7B7      0.143500
     50 H22         8.8580  -10.0190    1.7320 ha        1 7B7      0.170500
     51 H23         5.4090  -10.8000    2.7370 hn        1 7B7      0.465300
     52 H24         6.8710  -11.4130    2.1000 hn        1 7B7      0.465300
     53 H25         5.1080   -8.4430    3.3630 ha        1 7B7      0.170500
     54 H26         6.1450   -6.2190    3.5550 ha        1 7B7      0.143500
     55 H27         9.9600   -1.8700    2.5950 hn        1 7B7      0.495300
     56 HAS2        8.5950   -5.3060    0.8430 hn        1 7B7      0.499300
@<TRIPOS>BOND
     1    1    2 1   
     2    1   29 1   
     3    1   30 1   
     4    1   31 1   
     5    2    3 1   
     6    3    4 ar  
     7    3    8 ar  
     8    4    5 ar  
     9    4   32 1   
    10    5    6 ar  
    11    5   33 1   
    12    6    7 ar  
    13    6   34 1   
    14    7    8 ar  
    15    7   35 1   
    16    8    9 1   
    17    9   10 1   
    18    9   13 1   
    19    9   36 1   
    20   10   11 1   
    21   10   37 1   
    22   10   38 1   
    23   11   12 1   
    24   11   39 1   
    25   11   40 1   
    26   12   13 1   
    27   12   41 1   
    28   12   42 1   
    29   13   14 1   
    30   14   15 2   
    31   14   16 1   
    32   16   17 1   
    33   16   43 1   
    34   16   44 1   
    35   17   18 1   
    36   17   45 1   
    37   17   55 1   
    38   18   19 2   
    39   18   20 1   
    40   20   21 1   
    41   20   46 1   
    42   20   56 1   
    43   21   22 1   
    44   21   47 1   
    45   21   48 1   
    46   22   23 ar  
    47   22   28 ar  
    48   23   24 ar  
    49   23   49 1   
    50   24   25 ar  
    51   24   50 1   
    52   25   26 1   
    53   25   27 ar  
    54   26   51 1   
    55   26   52 1   
    56   27   28 ar  
    57   27   53 1   
    58   28   54 1   
@<TRIPOS>SUBSTRUCTURE
     1 7B7         1 TEMP              0 ****  ****    0 ROOT
