@<TRIPOS>MOLECULE
7BB
   46    45     1     0     0
SMALL
bcc


@<TRIPOS>ATOM
      1 N          -2.5010    0.1360    1.3080 n3        1 7BB     -0.336000
      2 O8         -0.3340   -0.3320   -1.7910 o         1 7BB     -0.408000
      3 O9          0.3100   -1.3900    0.1240 os        1 7BB     -0.280000
      4 CA         -1.3000    0.8950    1.3000 c2        1 7BB      0.261000
      5 CB         -0.9180    1.5710    2.4130 c1        1 7BB     -0.532000
      6 SG         -1.9260    1.5090    3.8860 s         1 7BB      0.089000
      7 O10         1.8090   -6.8560    1.8560 o         1 7BB     -0.582000
      8 O11         0.0830   -5.6130    2.3520 o         1 7BB     -0.582000
      9 O12        -0.2670    6.7460   -3.2830 o         1 7BB     -0.593000
     10 N13        -0.4900    0.9440    0.1160 n         1 7BB     -0.287000
     11 O13        -2.4060    6.4970   -3.6530 o         1 7BB     -0.593000
     12 C48        -0.1740   -0.2670   -0.5860 c2        1 7BB      0.402000
     13 C49        -0.0650    2.2210   -0.4190 c3        1 7BB     -0.012000
     14 C50        -1.2990    3.0400   -0.8370 c3        1 7BB     -0.179000
     15 C51        -0.9100    4.0110   -1.9800 c3        1 7BB     -0.142000
     16 C52         0.6820   -4.3270   -0.3590 c3        1 7BB     -0.137500
     17 C53         1.1630   -3.1820   -1.2280 c3        1 7BB     -0.165000
     18 C54         1.5270   -1.9640   -0.4370 c3        1 7BB      0.054000
     19 C55         2.4780   -2.2490    0.6760 c3        1 7BB     -0.165000
     20 C56         2.0170   -3.3800    1.5720 c3        1 7BB     -0.137500
     21 C57         1.6700   -4.6790    0.7860 c3        1 7BB     -0.176000
     22 C58         1.1380   -5.7910    1.6980 c2        1 7BB      0.334000
     23 C59        -1.4940    5.4020   -1.6920 c3        1 7BB     -0.219000
     24 C60        -1.3820    6.2720   -2.9440 c2        1 7BB      0.327000
     25 HN         -3.0150    0.1010    2.0640 hn        1 7BB      0.227500
     26 H2         -2.7350   -0.3540    0.5740 hn        1 7BB      0.227500
     27 HB         -0.0970    2.0900    2.4080 ha        1 7BB      0.148000
     28 HSG        -1.3110    1.9280    4.8010 hs        1 7BB     -0.017000
     29 H49         0.5110    2.0720   -1.2030 h1        1 7BB      0.100500
     30 H49A        0.4360    2.7120    0.2660 h1        1 7BB      0.100500
     31 H50        -2.0060    2.4320   -1.1500 hc        1 7BB      0.086500
     32 H50A       -1.6240    3.5510   -0.0740 hc        1 7BB      0.086500
     33 H51         0.0620    4.0720   -2.0390 hc        1 7BB      0.083000
     34 H51A       -1.2680    3.6770   -2.8280 hc        1 7BB      0.083000
     35 H52        -0.1840   -4.0830    0.0350 hc        1 7BB      0.085250
     36 H52A        0.5590   -5.1180   -0.9220 hc        1 7BB      0.085250
     37 H53         1.9460   -3.4760   -1.7300 hc        1 7BB      0.074500
     38 H53A        0.4550   -2.9470   -1.8580 hc        1 7BB      0.074500
     39 H54         1.9360   -1.3090   -1.0390 h1        1 7BB      0.097000
     40 H55         3.3440   -2.4830    0.2960 hc        1 7BB      0.074500
     41 H55A        2.5800   -1.4420    1.2170 hc        1 7BB      0.074500
     42 H56         2.7250   -3.5810    2.2120 hc        1 7BB      0.085250
     43 H56A        1.2260   -3.0900    2.0610 hc        1 7BB      0.085250
     44 H57         2.4780   -5.0970    0.4310 hc        1 7BB      0.071000
     45 H59        -2.4350    5.3150   -1.4380 hc        1 7BB      0.062000
     46 H59A       -0.9980    5.8170   -0.9620 hc        1 7BB      0.062000
@<TRIPOS>BOND
     1    1    4 1   
     2    1   25 1   
     3    1   26 1   
     4    2   12 1   
     5    3   12 1   
     6    3   18 1   
     7    4    5 1   
     8    4   10 1   
     9    5   27 1   
    10    6   28 1   
    11    7   22 1   
    12    8   22 1   
    13    9   24 1   
    14   10   12 1   
    15   10   13 1   
    16   11   24 1   
    17   13   14 1   
    18   13   29 1   
    19   13   30 1   
    20   14   15 1   
    21   14   31 1   
    22   14   32 1   
    23   15   23 1   
    24   15   33 1   
    25   15   34 1   
    26   16   17 1   
    27   16   21 1   
    28   16   35 1   
    29   16   36 1   
    30   17   18 1   
    31   17   37 1   
    32   17   38 1   
    33   18   19 1   
    34   18   39 1   
    35   19   20 1   
    36   19   40 1   
    37   19   41 1   
    38   20   21 1   
    39   20   42 1   
    40   20   43 1   
    41   21   22 1   
    42   21   44 1   
    43   23   24 1   
    44   23   45 1   
    45   23   46 1   
@<TRIPOS>SUBSTRUCTURE
     1 7BB         1 TEMP              0 ****  ****    0 ROOT
