@<TRIPOS>MOLECULE
7BB
   46    46     1     0     0
SMALL
bcc


@<TRIPOS>ATOM
      1 N          -0.7500   -1.8790    1.3710 nh        1 7BB     -0.823600
      2 O8          0.1750    1.6150   -0.7580 o         1 7BB     -0.578000
      3 O9          1.1440   -0.1980    0.1830 os        1 7BB     -0.469900
      4 CA         -1.1340   -1.6770    0.0380 c2        1 7BB      0.316600
      5 CB         -1.6340   -2.7040   -0.7240 c2        1 7BB     -0.247400
      6 SG         -1.7780   -4.2850   -0.1460 sh        1 7BB     -0.325400
      7 O10         7.3090    0.9730    1.0220 o         1 7BB     -0.849300
      8 O11         7.4260    0.3440   -1.1150 o         1 7BB     -0.849300
      9 O12        -7.6480    2.6340    0.9330 o         1 7BB     -0.856800
     10 N13        -1.0770   -0.3590   -0.5190 n         1 7BB     -0.386000
     11 O13        -7.3910    1.1920   -0.7470 o         1 7BB     -0.856800
     12 C48         0.0620    0.4380   -0.3780 c         1 7BB      0.743100
     13 C49        -2.3370    0.2750   -0.8820 c3        1 7BB      0.096000
     14 C50        -3.2860    0.5820    0.2740 c3        1 7BB     -0.107400
     15 C51        -4.5960    1.1200   -0.2660 c3        1 7BB     -0.063400
     16 C52         4.6310    0.4620    1.2910 c3        1 7BB     -0.056900
     17 C53         3.1920   -0.0130    1.3370 c3        1 7BB     -0.089900
     18 C54         2.4290    0.4790    0.1100 c3        1 7BB      0.165100
     19 C55         3.1180    0.0850   -1.1890 c3        1 7BB     -0.089900
     20 C56         4.5590    0.5570   -1.1930 c3        1 7BB     -0.056900
     21 C57         5.3190    0.0330    0.0110 c3        1 7BB     -0.184700
     22 C58         6.7950    0.4960   -0.0300 c         1 7BB      0.914600
     23 C59        -5.5780    1.4200    0.8400 c3        1 7BB     -0.191400
     24 C60        -6.9710    1.7770    0.2930 c         1 7BB      0.907600
     25 HN         -0.0590   -1.2540    1.7310 hn        1 7BB      0.411800
     26 H2         -0.5740   -2.8410    1.5820 hn        1 7BB      0.411800
     27 HB         -2.0110   -2.5050   -1.7340 h4        1 7BB      0.150000
     28 HSG        -0.9490   -4.8840   -0.9890 hs        1 7BB      0.165800
     29 H49        -2.0910    1.2330   -1.4240 h1        1 7BB      0.068700
     30 H49A       -2.8540   -0.4210   -1.6030 h1        1 7BB      0.068700
     31 H50        -3.4780   -0.3470    0.8730 hc        1 7BB      0.042700
     32 H50A       -2.8220    1.3360    0.9610 hc        1 7BB      0.042700
     33 H51        -4.4040    2.0540   -0.8570 hc        1 7BB      0.046200
     34 H51A       -5.0630    0.3770   -0.9670 hc        1 7BB      0.046200
     35 H52         4.6710    1.5790    1.3740 hc        1 7BB      0.049700
     36 H52A        5.1940    0.0480    2.1670 hc        1 7BB      0.049700
     37 H53         3.1590   -1.1330    1.3640 hc        1 7BB      0.034450
     38 H53A        2.6850    0.3640    2.2620 hc        1 7BB      0.034450
     39 H54         2.2710    1.5900    0.1550 h1        1 7BB      0.077700
     40 H55         3.0810   -1.0300   -1.3020 hc        1 7BB      0.034450
     41 H55A        2.5570    0.5340   -2.0490 hc        1 7BB      0.034450
     42 H56         5.0740    0.2090   -2.1260 hc        1 7BB      0.049700
     43 H56A        4.5880    1.6780   -1.1930 hc        1 7BB      0.049700
     44 H57         5.3380   -1.0910   -0.0350 hc        1 7BB      0.029700
     45 H59        -5.6950    0.5230    1.5000 hc        1 7BB      0.021700
     46 H59A       -5.2050    2.2630    1.4740 hc        1 7BB      0.021700
@<TRIPOS>BOND
     1    1    4 1   
     2    1   25 1   
     3    1   26 1   
     4    2   12 2   
     5    3   12 1   
     6    3   18 1   
     7    4    5 2   
     8    4   10 1   
     9    5    6 1   
    10    5   27 1   
    11    6   28 1   
    12    7   22 1   
    13    8   22 1   
    14    9   24 1   
    15   10   12 1   
    16   10   13 1   
    17   11   24 1   
    18   13   14 1   
    19   13   29 1   
    20   13   30 1   
    21   14   15 1   
    22   14   31 1   
    23   14   32 1   
    24   15   23 1   
    25   15   33 1   
    26   15   34 1   
    27   16   17 1   
    28   16   21 1   
    29   16   35 1   
    30   16   36 1   
    31   17   18 1   
    32   17   37 1   
    33   17   38 1   
    34   18   19 1   
    35   18   39 1   
    36   19   20 1   
    37   19   40 1   
    38   19   41 1   
    39   20   21 1   
    40   20   42 1   
    41   20   43 1   
    42   21   22 1   
    43   21   44 1   
    44   23   24 1   
    45   23   45 1   
    46   23   46 1   
@<TRIPOS>SUBSTRUCTURE
     1 7BB         1 TEMP              0 ****  ****    0 ROOT
