@<TRIPOS>MOLECULE
7BD
   32    27     1     0     0
SMALL
bcc


@<TRIPOS>ATOM
      1 C1         -1.9290   -0.0360   -0.2360 c1        1 7BD     -0.013000
      2 C2         -0.4520    0.0060   -0.2600 c2        1 7BD     -0.073000
      3 C3          0.0220   -0.1090    1.1240 c2        1 7BD     -0.042000
      4 C4         -1.1110   -0.0610    1.9750 c1        1 7BD     -0.044000
      5 C5         -2.3410   -0.0150    1.1100 c1        1 7BD     -0.038000
      6 C6         -0.9390    0.0090    3.3720 c1        1 7BD     -0.115000
      7 C10        -3.7040    0.0640    1.4210 c1        1 7BD     -0.114000
      8 C11        -2.8810    0.0220   -1.2590 c1        1 7BD     -0.100000
      9 C12        -4.2380    0.1000   -0.9450 c1        1 7BD     -0.136000
     10 C13        -4.6500    0.1220    0.4000 c2        1 7BD     -0.142000
     11 C16         2.1730   -0.3700   -2.5840 c3        1 7BD      0.019000
     12 C17         3.6580   -0.4060   -2.3960 c3        1 7BD     -0.249000
     13 C18         4.3120    0.7320   -3.2320 c2        1 7BD      0.338000
     14 C7          1.2810   -0.0870    1.6590 c1        1 7BD     -0.092000
     15 C8          1.4520   -0.0170    3.0590 c1        1 7BD     -0.132000
     16 C9          0.3250    0.0310    3.9070 c2        1 7BD     -0.142000
     17 N14         0.2910    0.0270   -1.3290 n1        1 7BD      0.031000
     18 O15         1.5270   -0.5930   -1.3290 o         1 7BD     -0.226000
     19 O19         4.9130    0.4590   -4.3280 o         1 7BD     -0.573000
     20 O20         4.2630    1.9300   -2.8170 o         1 7BD     -0.573000
     21 H6         -1.6170    0.1890    4.0780 DU        1 7BD      0.125500
     22 H10        -3.9980    0.0780    2.3740 DU        1 7BD      0.125500
     23 H11        -2.5910    0.0060   -2.2100 ha        1 7BD      0.150000
     24 H12        -4.8940    0.1400   -1.6500 ha        1 7BD      0.124000
     25 H13        -5.6260    0.1780    0.6230 ha        1 7BD      0.120000
     26 H16         1.9130   -1.0500   -3.2020 h1        1 7BD      0.099500
     27 H16A        1.9050    0.5280   -2.9420 h1        1 7BD      0.099500
     28 H17         3.8710   -0.2770   -1.4420 hc        1 7BD      0.078000
     29 H17A        4.0070   -1.2790   -2.6960 hc        1 7BD      0.078000
     30 H7          2.2320   -0.2360    1.4260 ha        1 7BD      0.167000
     31 H8          2.3190   -0.1830    3.4470 ha        1 7BD      0.128000
     32 H9          0.5060    0.0990    4.8830 ha        1 7BD      0.120000
@<TRIPOS>BOND
     1    1    2 1   
     2    1    8 1   
     3    2    3 1   
     4    2   17 1   
     5    3    4 1   
     6    3   14 1   
     7    4    6 1   
     8    5    7 1   
     9    6   16 1   
    10    7   10 1   
    11    8   23 1   
    12    9   10 1   
    13    9   24 1   
    14   10   25 1   
    15   11   12 1   
    16   11   18 1   
    17   11   26 1   
    18   11   27 1   
    19   12   13 1   
    20   12   28 1   
    21   12   29 1   
    22   13   19 1   
    23   13   20 1   
    24   14   30 1   
    25   15   16 1   
    26   15   31 1   
    27   16   32 1   
@<TRIPOS>SUBSTRUCTURE
     1 7BD         1 TEMP              0 ****  ****    0 ROOT
