@<TRIPOS>MOLECULE
7BD
   32    34     1     0     0
SMALL
bcc


@<TRIPOS>ATOM
      1 C1          0.0770    0.0020    0.0290 ca        1 7BD     -0.111400
      2 C2          1.5630    0.0020    0.0270 cc        1 7BD      0.381500
      3 C3          1.9570   -0.0000    1.4560 ca        1 7BD     -0.111400
      4 C4          0.7770   -0.0000    2.2700 cp        1 7BD     -0.041000
      5 C5         -0.3870    0.0010    1.3850 cp        1 7BD     -0.041000
      6 C6          0.8790   -0.0020    3.6490 ca        1 7BD     -0.114500
      7 C10        -1.7430    0.0020    1.6590 ca        1 7BD     -0.114500
      8 C11        -0.8220    0.0040   -1.0220 ca        1 7BD     -0.096000
      9 C12        -2.1950    0.0050   -0.7290 ca        1 7BD     -0.134000
     10 C13        -2.6470    0.0040    0.5870 ca        1 7BD     -0.142000
     11 C16         4.3150    0.0020   -2.2260 c3        1 7BD      0.173400
     12 C17         5.7630    0.0010   -1.8120 c3        1 7BD     -0.220400
     13 C18         6.6770   -0.0010   -3.0590 c         1 7BD      0.918600
     14 C7          3.2120   -0.0020    2.0370 ca        1 7BD     -0.096000
     15 C8          3.3010   -0.0030    3.4380 ca        1 7BD     -0.134000
     16 C9          2.1570   -0.0030    4.2290 ca        1 7BD     -0.142000
     17 N14         2.2720    0.0020   -1.0740 n2        1 7BD     -0.355200
     18 O15         3.5640    0.0010   -0.9470 os        1 7BD     -0.201300
     19 O19         7.9210    0.0030   -2.8510 o         1 7BD     -0.839300
     20 O20         6.1370   -0.0070   -4.2010 o         1 7BD     -0.839300
     21 H6         -0.0190   -0.0020    4.2820 ha        1 7BD      0.125500
     22 H10        -2.1080    0.0010    2.6950 ha        1 7BD      0.125500
     23 H11        -0.4720    0.0050   -2.0640 ha        1 7BD      0.159000
     24 H12        -2.9200    0.0060   -1.5560 ha        1 7BD      0.126000
     25 H13        -3.7270    0.0040    0.7940 ha        1 7BD      0.120000
     26 H16         4.0470    0.9190   -2.8060 h1        1 7BD      0.059200
     27 H16A        4.0470   -0.9140   -2.8070 h1        1 7BD      0.059200
     28 H17         5.9970    0.9050   -1.1990 hc        1 7BD      0.038700
     29 H17A        5.9960   -0.9020   -1.1970 hc        1 7BD      0.038700
     30 H7          4.1190   -0.0020    1.4100 ha        1 7BD      0.159000
     31 H8          4.2940   -0.0040    3.9110 ha        1 7BD      0.126000
     32 H9          2.2490   -0.0050    5.3240 ha        1 7BD      0.120000
@<TRIPOS>BOND
     1    1    2 1   
     2    1    5 ar  
     3    1    8 ar  
     4    2    3 1   
     5    2   17 2   
     6    3    4 ar  
     7    3   14 ar  
     8    4    5 1   
     9    4    6 ar  
    10    5    7 ar  
    11    6   16 ar  
    12    6   21 1   
    13    7   10 ar  
    14    7   22 1   
    15    8    9 ar  
    16    8   23 1   
    17    9   10 ar  
    18    9   24 1   
    19   10   25 1   
    20   11   12 1   
    21   11   18 1   
    22   11   26 1   
    23   11   27 1   
    24   12   13 1   
    25   12   28 1   
    26   12   29 1   
    27   13   19 1   
    28   13   20 1   
    29   14   15 ar  
    30   14   30 1   
    31   15   16 ar  
    32   15   31 1   
    33   16   32 1   
    34   17   18 1   
@<TRIPOS>SUBSTRUCTURE
     1 7BD         1 TEMP              0 ****  ****    0 ROOT
