@<TRIPOS>MOLECULE
7BD
   32    34     1     0     0
SMALL
bcc


@<TRIPOS>ATOM
      1 C1         -1.9090   -1.1580   -0.0010 ca        1 7BD     -0.111400
      2 C2         -0.6460   -0.3740   -0.0000 cc        1 7BD      0.381500
      3 C3         -1.0660    1.0480   -0.0000 ca        1 7BD     -0.111400
      4 C4         -2.4970    1.1150   -0.0000 cp        1 7BD     -0.041000
      5 C5         -3.0180   -0.2510   -0.0000 cp        1 7BD     -0.041000
      6 C6         -3.1400    2.3400   -0.0000 ca        1 7BD     -0.114500
      7 C10        -4.3150   -0.7350   -0.0010 ca        1 7BD     -0.114500
      8 C11        -2.1170   -2.5240   -0.0010 ca        1 7BD     -0.096000
      9 C12        -3.4370   -3.0010   -0.0010 ca        1 7BD     -0.134000
     10 C13        -4.5160   -2.1230   -0.0010 ca        1 7BD     -0.142000
     11 C16         2.8810   -0.8330   -0.0010 c3        1 7BD      0.173400
     12 C17         3.8920    0.2830   -0.0010 c3        1 7BD     -0.220400
     13 C18         5.3270   -0.2930   -0.0000 c         1 7BD      0.918600
     14 C7         -0.3070    2.2040    0.0000 ca        1 7BD     -0.096000
     15 C8         -0.9720    3.4400    0.0000 ca        1 7BD     -0.134000
     16 C9         -2.3610    3.5070    0.0000 ca        1 7BD     -0.142000
     17 N14         0.5380   -0.9340   -0.0010 n2        1 7BD     -0.355200
     18 O15         1.5680   -0.1430   -0.0000 os        1 7BD     -0.201300
     19 O19         6.2730    0.5410   -0.0020 o         1 7BD     -0.839300
     20 O20         5.4710   -1.5480    0.0020 o         1 7BD     -0.839300
     21 H6         -4.2360    2.4030   -0.0000 ha        1 7BD      0.125500
     22 H10        -5.1720   -0.0480   -0.0000 ha        1 7BD      0.125500
     23 H11        -1.2690   -3.2240   -0.0010 ha        1 7BD      0.159000
     24 H12        -3.6150   -4.0860   -0.0010 ha        1 7BD      0.126000
     25 H13        -5.5420   -2.5170   -0.0010 ha        1 7BD      0.120000
     26 H16         2.9600   -1.4670   -0.9170 h1        1 7BD      0.059700
     27 H16A        2.9600   -1.4670    0.9160 h1        1 7BD      0.059700
     28 H17         3.7660    0.9280   -0.9040 hc        1 7BD      0.038700
     29 H17A        3.7660    0.9280    0.9030 hc        1 7BD      0.038700
     30 H7          0.7940    2.1510    0.0000 ha        1 7BD      0.159000
     31 H8         -0.3780    4.3660    0.0000 ha        1 7BD      0.126000
     32 H9         -2.8610    4.4860    0.0000 ha        1 7BD      0.120000
@<TRIPOS>BOND
     1    1    2 1   
     2    1    5 ar  
     3    1    8 ar  
     4    2    3 1   
     5    2   17 2   
     6    3    4 ar  
     7    3   14 ar  
     8    4    5 1   
     9    4    6 ar  
    10    5    7 ar  
    11    6   16 ar  
    12    6   21 1   
    13    7   10 ar  
    14    7   22 1   
    15    8    9 ar  
    16    8   23 1   
    17    9   10 ar  
    18    9   24 1   
    19   10   25 1   
    20   11   12 1   
    21   11   18 1   
    22   11   26 1   
    23   11   27 1   
    24   12   13 1   
    25   12   28 1   
    26   12   29 1   
    27   13   19 1   
    28   13   20 1   
    29   14   15 ar  
    30   14   30 1   
    31   15   16 ar  
    32   15   31 1   
    33   16   32 1   
    34   17   18 1   
@<TRIPOS>SUBSTRUCTURE
     1 7BD         1 TEMP              0 ****  ****    0 ROOT
