@<TRIPOS>MOLECULE
7C1
   34    36     1     0     0
SMALL
bcc


@<TRIPOS>ATOM
      1 C1         -3.9700   -1.0700   -0.0960 ca        1 7C1      0.004700
      2 C2         -5.1290   -0.2570   -0.0570 ca        1 7C1     -0.122000
      3 C3         -5.0490    1.1230    0.0370 ca        1 7C1     -0.111000
      4 C4         -3.8020    1.7770    0.0970 ca        1 7C1     -0.066000
      5 C5         -2.6710    0.9940    0.0590 ca        1 7C1     -0.136600
      6 C6         -2.7480   -0.4250   -0.0360 ca        1 7C1     -0.146600
      7 C7         -1.3480   -0.9580   -0.0510 c         1 7C1      0.734100
      8 C8         -1.2270    1.3840    0.1020 c         1 7C1      0.729100
      9 N9         -0.4710    0.1710    0.0350 n         1 7C1     -0.433600
     10 N20         5.7960   -1.3050   -0.3490 nh        1 7C1     -0.893800
     11 O10        -0.9870   -2.1340   -0.1260 o         1 7C1     -0.566500
     12 C21        -4.1090   -2.5390   -0.1940 c3        1 7C1     -0.076800
     13 O11        -0.7600    2.5210    0.1790 o         1 7C1     -0.559500
     14 C12         0.9370    0.0970    0.0570 ca        1 7C1      0.072600
     15 C13         1.7210    1.1640   -0.4400 ca        1 7C1     -0.146000
     16 C14         3.1080    1.0860   -0.4100 ca        1 7C1     -0.090500
     17 C15         3.7480   -0.0480    0.0980 ca        1 7C1     -0.210900
     18 C16         2.9820   -1.1080    0.5870 ca        1 7C1     -0.090500
     19 C17         1.5930   -1.0410    0.5760 ca        1 7C1     -0.146000
     20 C18         5.2440   -0.0980    0.1310 ce        1 7C1      0.641800
     21 N19         5.9960    0.8500    0.6110 n2        1 7C1     -0.836100
     22 H2         -6.1140   -0.7490   -0.1030 ha        1 7C1      0.145000
     23 H3         -5.9700    1.7260    0.0660 ha        1 7C1      0.145000
     24 H4         -3.7390    2.8730    0.1720 ha        1 7C1      0.161000
     25 HN20        5.2880   -1.6910   -1.1130 hn        1 7C1      0.398300
     26 HN2A        6.7830   -1.2970   -0.4910 hn        1 7C1      0.398300
     27 H21        -4.7030   -2.8090   -1.1030 hc        1 7C1      0.064367
     28 H21A       -3.1100   -3.0400   -0.2590 hc        1 7C1      0.064367
     29 H21B       -4.6470   -2.9330    0.7050 hc        1 7C1      0.064367
     30 H13         1.2410    2.0730   -0.8400 ha        1 7C1      0.161000
     31 H14         3.7020    1.9300   -0.7980 ha        1 7C1      0.147500
     32 H16         3.4760   -2.0030    0.9970 ha        1 7C1      0.147500
     33 H17         1.0110   -1.8940    0.9630 ha        1 7C1      0.161000
     34 HN19        5.4890    1.6080    1.0130 hn        1 7C1      0.395400
@<TRIPOS>BOND
     1    1    2 ar  
     2    1    6 ar  
     3    1   12 1   
     4    2    3 ar  
     5    2   22 1   
     6    3    4 ar  
     7    3   23 1   
     8    4    5 ar  
     9    4   24 1   
    10    5    6 ar  
    11    5    8 1   
    12    6    7 1   
    13    7    9 1   
    14    7   11 2   
    15    8    9 1   
    16    8   13 2   
    17    9   14 1   
    18   10   20 1   
    19   10   25 1   
    20   10   26 1   
    21   12   27 1   
    22   12   28 1   
    23   12   29 1   
    24   14   15 ar  
    25   14   19 ar  
    26   15   16 ar  
    27   15   30 1   
    28   16   17 ar  
    29   16   31 1   
    30   17   18 ar  
    31   17   20 1   
    32   18   19 ar  
    33   18   32 1   
    34   19   33 1   
    35   20   21 2   
    36   21   34 1   
@<TRIPOS>SUBSTRUCTURE
     1 7C1         1 TEMP              0 ****  ****    0 ROOT
