@<TRIPOS>MOLECULE
7C1
   34    30     1     0     0
SMALL
bcc


@<TRIPOS>ATOM
      1 C1          2.8560    0.0380   -2.8720 c1        1 7C1      0.011000
      2 C2          4.2410    0.0830   -2.8760 c2        1 7C1     -0.123000
      3 C3          4.9370    0.1100   -1.6770 c1        1 7C1     -0.111000
      4 C4          4.2470    0.0910   -0.4740 c1        1 7C1     -0.067000
      5 C5          2.8470    0.0450   -0.4710 c1        1 7C1     -0.115000
      6 C6          2.1580    0.0190   -1.6580 c2        1 7C1     -0.126000
      7 C7          0.6700   -0.0270   -1.3360 c2        1 7C1      0.370000
      8 C8          1.8300    0.0240    0.6640 c1        1 7C1      0.365000
      9 N9          0.5230    0.0200    0.0850 n         1 7C1     -0.306000
     10 N20        -5.6120   -0.1530    2.3680 n3        1 7C1     -0.397000
     11 O10        -0.2330   -0.1110   -2.1440 o         1 7C1     -0.293000
     12 C21         2.2930   -0.0980   -4.2700 c2        1 7C1     -0.202000
     13 O11         2.0850    0.0040    1.8510 o         1 7C1     -0.282000
     14 C12        -0.7030    0.0170    0.7970 c2        1 7C1      0.077000
     15 C13        -1.2670    1.2130    1.2120 c2        1 7C1     -0.149000
     16 C14        -2.4560    1.2080    1.9240 c1        1 7C1     -0.076000
     17 C15        -3.0820    0.0080    2.2210 c1        1 7C1     -0.071000
     18 C16        -2.5180   -1.1890    1.8050 c1        1 7C1     -0.096000
     19 C17        -1.3290   -1.1840    1.0930 c1        1 7C1     -0.147000
     20 C18        -4.3630    0.0010    3.0250 c2        1 7C1      0.129000
     21 N19        -4.3210    0.1370    4.3240 n1        1 7C1     -0.293000
     22 H2          4.7270    0.0960   -3.7220 ha        1 7C1      0.144000
     23 H3          5.9120    0.1420   -1.6790 ha        1 7C1      0.145000
     24 H4          4.7370    0.1090    0.3700 ha        1 7C1      0.161000
     25 HN20       -5.6980    0.0840    1.4890 hn        1 7C1      0.193500
     26 HN2A       -6.3310   -0.4840    2.8250 hn        1 7C1      0.193500
     27 H21         2.3550   -1.0330   -4.5590 ha        1 7C1      0.103667
     28 H21A        2.8050    0.4680   -4.8850 ha        1 7C1      0.103667
     29 H21B        1.3540    0.1830   -4.2730 ha        1 7C1      0.103667
     30 H13        -0.8260    2.0580    1.0040 ha        1 7C1      0.160000
     31 H14        -2.8530    2.0510    2.2170 ha        1 7C1      0.152000
     32 H16        -2.9590   -2.0340    2.0140 ha        1 7C1      0.147000
     33 H17        -0.9320   -2.0260    0.8010 ha        1 7C1      0.159000
     34 HN19       -5.0950    0.1330    4.8090 DU        1 7C1      0.137000
@<TRIPOS>BOND
     1    1    2 1   
     2    1    6 1   
     3    2    3 1   
     4    2   22 1   
     5    3   23 1   
     6    4    5 1   
     7    4   24 1   
     8    5    6 1   
     9    6    7 1   
    10    7    9 1   
    11    7   11 1   
    12    8    9 1   
    13    8   13 1   
    14    9   14 1   
    15   10   20 1   
    16   10   25 1   
    17   10   26 1   
    18   12   27 1   
    19   12   28 1   
    20   12   29 1   
    21   14   15 1   
    22   14   19 1   
    23   15   16 1   
    24   15   30 1   
    25   16   31 1   
    26   17   18 1   
    27   17   20 1   
    28   18   32 1   
    29   19   33 1   
    30   20   21 1   
@<TRIPOS>SUBSTRUCTURE
     1 7C1         1 TEMP              0 ****  ****    0 ROOT
