@<TRIPOS>MOLECULE
7C1
   35    37     1     0     0
SMALL
bcc


@<TRIPOS>ATOM
      1 C1         -0.0160   -0.0670   -0.0530 ca        1 7C1      0.018700
      2 C2          1.4020   -0.0900   -0.0230 ca        1 7C1     -0.113000
      3 C3          2.1070   -0.0770    1.1690 ca        1 7C1     -0.099000
      4 C4          1.4400   -0.0390    2.4110 ca        1 7C1     -0.053000
      5 C5          0.0640   -0.0160    2.3900 ca        1 7C1     -0.139600
      6 C6         -0.6670   -0.0290    1.1660 ca        1 7C1     -0.153600
      7 C7         -2.1200    0.0050    1.4960 c         1 7C1      0.742100
      8 C8         -0.9050    0.0240    3.5210 c         1 7C1      0.736100
      9 N9         -2.2240    0.0420    2.9360 n         1 7C1     -0.450600
     10 N20        -8.1670   -0.5900    5.1810 n4        1 7C1     -0.896600
     11 O10        -3.0880   -0.0090    0.7360 o         1 7C1     -0.563500
     12 C21        -0.7180   -0.0800   -1.3540 c3        1 7C1     -0.081800
     13 O11        -0.6740    0.0420    4.7290 o         1 7C1     -0.547500
     14 C12        -3.4210    0.1100    3.6530 ca        1 7C1      0.149600
     15 C13        -3.4870   -0.3050    5.0080 ca        1 7C1     -0.155000
     16 C14        -4.6810   -0.2420    5.7130 ca        1 7C1     -0.062000
     17 C15        -5.8450    0.2200    5.0880 ca        1 7C1     -0.263900
     18 C16        -5.7960    0.6550    3.7570 ca        1 7C1     -0.062000
     19 C17        -4.6080    0.6030    3.0470 ca        1 7C1     -0.155000
     20 C18        -7.1020    0.2970    5.8570 ce        1 7C1      0.647800
     21 N19        -7.2850    0.9680    6.9120 n2        1 7C1     -0.679100
     22 H2          1.9440   -0.1200   -0.9830 ha        1 7C1      0.157000
     23 H3          3.2100   -0.0950    1.1570 ha        1 7C1      0.158000
     24 H4          2.0030   -0.0280    3.3570 ha        1 7C1      0.168000
     25 HN20       -9.0990   -0.4730    5.5790 hn        1 7C1      0.454800
     26 HN2A       -8.1940   -0.3590    4.1820 hn        1 7C1      0.454800
     27 H21        -0.4160   -0.9820   -1.9440 hc        1 7C1      0.070033
     28 H21A       -1.8290   -0.0970   -1.2200 hc        1 7C1      0.070033
     29 H21B       -0.4440    0.8300   -1.9450 hc        1 7C1      0.070033
     30 H13        -2.5840   -0.6710    5.5290 ha        1 7C1      0.188000
     31 H14        -4.7000   -0.5520    6.7710 ha        1 7C1      0.144500
     32 H16        -6.6880    1.0790    3.2680 ha        1 7C1      0.144500
     33 H17        -4.5980    0.9550    2.0000 ha        1 7C1      0.188000
     34 HN19       -8.1340    0.9860    7.4310 hn        1 7C1      0.460400
     35 H203       -7.8800   -1.5680    5.2770 hn        1 7C1      0.454800
@<TRIPOS>BOND
     1    1    2 ar  
     2    1    6 ar  
     3    1   12 1   
     4    2    3 ar  
     5    2   22 1   
     6    3    4 ar  
     7    3   23 1   
     8    4    5 ar  
     9    4   24 1   
    10    5    6 ar  
    11    5    8 1   
    12    6    7 1   
    13    7    9 1   
    14    7   11 2   
    15    8    9 1   
    16    8   13 2   
    17    9   14 1   
    18   10   20 1   
    19   10   25 1   
    20   10   26 1   
    21   10   35 1   
    22   12   27 1   
    23   12   28 1   
    24   12   29 1   
    25   14   15 ar  
    26   14   19 ar  
    27   15   16 ar  
    28   15   30 1   
    29   16   17 ar  
    30   16   31 1   
    31   17   18 ar  
    32   17   20 1   
    33   18   19 ar  
    34   18   32 1   
    35   19   33 1   
    36   20   21 2   
    37   21   34 1   
@<TRIPOS>SUBSTRUCTURE
     1 7C1         1 TEMP              0 ****  ****    0 ROOT
