@<TRIPOS>MOLECULE
7C1
   35    37     1     0     0
SMALL
bcc


@<TRIPOS>ATOM
      1 C1         -0.0150   -0.0090   -0.0530 ca        1 7C1      0.018700
      2 C2          1.4030   -0.0260   -0.0230 ca        1 7C1     -0.113000
      3 C3          2.1080   -0.0280    1.1690 ca        1 7C1     -0.099000
      4 C4          1.4400   -0.0130    2.4120 ca        1 7C1     -0.053000
      5 C5          0.0640    0.0030    2.3910 ca        1 7C1     -0.139600
      6 C6         -0.6660    0.0060    1.1670 ca        1 7C1     -0.153600
      7 C7         -2.1200    0.0280    1.4970 c         1 7C1      0.742100
      8 C8         -0.9050    0.0210    3.5220 c         1 7C1      0.736100
      9 N9         -2.2250    0.0420    2.9370 n         1 7C1     -0.450600
     10 N20        -8.1650   -0.6520    5.1700 n4        1 7C1     -0.896600
     11 O10        -3.0880    0.0210    0.7360 o         1 7C1     -0.563500
     12 C21        -0.7170   -0.0060   -1.3540 c3        1 7C1     -0.081800
     13 O11        -0.6740    0.0210    4.7300 o         1 7C1     -0.547500
     14 C12        -3.4210    0.0930    3.6550 ca        1 7C1      0.149600
     15 C13        -3.4860   -0.3440    5.0030 ca        1 7C1     -0.155000
     16 C14        -4.6800   -0.2960    5.7080 ca        1 7C1     -0.062000
     17 C15        -5.8470    0.1700    5.0910 ca        1 7C1     -0.263900
     18 C16        -5.8000    0.6260    3.7670 ca        1 7C1     -0.062000
     19 C17        -4.6110    0.5900    3.0560 ca        1 7C1     -0.155000
     20 C18        -7.1040    0.2290    5.8600 ce        1 7C1      0.647800
     21 N19        -7.2900    0.8820    6.9260 n2        1 7C1     -0.679100
     22 H2          1.9450   -0.0380   -0.9830 ha        1 7C1      0.157000
     23 H3          3.2100   -0.0410    1.1570 ha        1 7C1      0.158000
     24 H4          2.0030   -0.0140    3.3580 ha        1 7C1      0.168000
     25 HN20       -9.0970   -0.5460    5.5700 hn        1 7C1      0.454800
     26 HN2A       -7.8720   -1.6300    5.2490 hn        1 7C1      0.454800
     27 H21        -0.4430    0.9120   -1.9340 hc        1 7C1      0.070033
     28 H21A       -1.8280   -0.0250   -1.2210 hc        1 7C1      0.070033
     29 H21B       -0.4150   -0.9010   -1.9550 hc        1 7C1      0.070033
     30 H13        -2.5810   -0.7140    5.5180 ha        1 7C1      0.188000
     31 H14        -4.6980   -0.6230    6.7610 ha        1 7C1      0.144500
     32 H16        -6.6930    1.0530    3.2840 ha        1 7C1      0.144500
     33 H17        -4.6020    0.9590    2.0140 ha        1 7C1      0.188000
     34 HN19       -8.1390    0.8870    7.4450 hn        1 7C1      0.460400
     35 H203       -8.1940   -0.4040    4.1750 hn        1 7C1      0.454800
@<TRIPOS>BOND
     1    1    2 ar  
     2    1    6 ar  
     3    1   12 1   
     4    2    3 ar  
     5    2   22 1   
     6    3    4 ar  
     7    3   23 1   
     8    4    5 ar  
     9    4   24 1   
    10    5    6 ar  
    11    5    8 1   
    12    6    7 1   
    13    7    9 1   
    14    7   11 2   
    15    8    9 1   
    16    8   13 2   
    17    9   14 1   
    18   10   20 1   
    19   10   25 1   
    20   10   26 1   
    21   10   35 1   
    22   12   27 1   
    23   12   28 1   
    24   12   29 1   
    25   14   15 ar  
    26   14   19 ar  
    27   15   16 ar  
    28   15   30 1   
    29   16   17 ar  
    30   16   31 1   
    31   17   18 ar  
    32   17   20 1   
    33   18   19 ar  
    34   18   32 1   
    35   19   33 1   
    36   20   21 2   
    37   21   34 1   
@<TRIPOS>SUBSTRUCTURE
     1 7C1         1 TEMP              0 ****  ****    0 ROOT
