@<TRIPOS>MOLECULE
7C1
   35    37     1     0     0
SMALL
bcc


@<TRIPOS>ATOM
      1 C1         -0.0220   -0.0350   -0.0600 ca        1 7C1      0.018700
      2 C2          1.3960   -0.0500   -0.0340 ca        1 7C1     -0.113000
      3 C3          2.1040   -0.0380    1.1570 ca        1 7C1     -0.099000
      4 C4          1.4390   -0.0110    2.4010 ca        1 7C1     -0.053000
      5 C5          0.0630    0.0030    2.3830 ca        1 7C1     -0.139600
      6 C6         -0.6710   -0.0080    1.1610 ca        1 7C1     -0.153600
      7 C7         -2.1230    0.0150    1.4940 c         1 7C1      0.742100
      8 C8         -0.9040    0.0310    3.5170 c         1 7C1      0.736100
      9 N9         -2.2250    0.0440    2.9350 n         1 7C1     -0.450600
     10 N20        -8.1580   -0.6360    5.1890 nz        1 7C1     -0.896600
     11 O10        -3.0930   -0.0010    0.7360 o         1 7C1     -0.563500
     12 C21        -0.7280   -0.0470   -1.3590 c3        1 7C1     -0.081800
     13 O11        -0.6700    0.0430    4.7240 o         1 7C1     -0.547500
     14 C12        -3.4200    0.1000    3.6550 ca        1 7C1      0.149600
     15 C13        -3.4800   -0.3230    5.0080 ca        1 7C1     -0.155000
     16 C14        -4.6730   -0.2700    5.7160 ca        1 7C1     -0.062000
     17 C15        -5.8410    0.1880    5.0960 ca        1 7C1     -0.263900
     18 C16        -5.7980    0.6310    3.7670 ca        1 7C1     -0.062000
     19 C17        -4.6120    0.5900    3.0540 ca        1 7C1     -0.155000
     20 C18        -7.0970    0.2530    5.8680 ce        1 7C1      0.647800
     21 N19        -7.2810    0.9170    6.9270 n2        1 7C1     -0.679100
     22 H2          1.9350   -0.0710   -0.9950 ha        1 7C1      0.157000
     23 H3          3.2060   -0.0490    1.1420 ha        1 7C1      0.158000
     24 H4          2.0040   -0.0010    3.3450 ha        1 7C1      0.168000
     25 HN20       -9.0900   -0.5280    5.5910 hn        1 7C1      0.454800
     26 HN2A       -7.8640   -1.6130    5.2780 hn        1 7C1      0.454800
     27 H21        -1.8380   -0.0590   -1.2240 hc        1 7C1      0.070033
     28 H21A       -0.4310   -0.9520   -1.9480 hc        1 7C1      0.070033
     29 H21B       -0.4510    0.8610   -1.9530 hc        1 7C1      0.070033
     30 H13        -2.5740   -0.6860    5.5250 ha        1 7C1      0.188000
     31 H14        -4.6880   -0.5860    6.7720 ha        1 7C1      0.144500
     32 H16        -6.6930    1.0520    3.2820 ha        1 7C1      0.144500
     33 H17        -4.6060    0.9480    2.0090 ha        1 7C1      0.188000
     34 HN19       -8.1300    0.9260    7.4480 hn        1 7C1      0.460400
     35 H203       -8.1910   -0.3990    4.1930 hn        1 7C1      0.454800
@<TRIPOS>BOND
     1    1    2 ar  
     2    1    6 ar  
     3    1   12 1   
     4    2    3 ar  
     5    2   22 1   
     6    3    4 ar  
     7    3   23 1   
     8    4    5 ar  
     9    4   24 1   
    10    5    6 ar  
    11    5    8 1   
    12    6    7 1   
    13    7    9 1   
    14    7   11 2   
    15    8    9 1   
    16    8   13 2   
    17    9   14 1   
    18   10   20 1   
    19   10   25 1   
    20   10   26 1   
    21   10   35 1   
    22   12   27 1   
    23   12   28 1   
    24   12   29 1   
    25   14   15 ar  
    26   14   19 ar  
    27   15   16 ar  
    28   15   30 1   
    29   16   17 ar  
    30   16   31 1   
    31   17   18 ar  
    32   17   20 1   
    33   18   19 ar  
    34   18   32 1   
    35   19   33 1   
    36   20   21 2   
    37   21   34 1   
@<TRIPOS>SUBSTRUCTURE
     1 7C1         1 TEMP              0 ****  ****    0 ROOT
