@<TRIPOS>MOLECULE
7CA
   69    64     1     0     0
SMALL
bcc


@<TRIPOS>ATOM
      1 C1         -2.5720    1.3120   -6.1200 c3        1 7CA     -0.078000
      2 O1         -2.8760    0.1630   -5.3590 os        1 7CA     -0.206000
      3 C2         -2.2620    0.1480   -4.0330 c2        1 7CA      0.104000
      4 C3         -2.9540    0.6660   -2.9330 c2        1 7CA     -0.170000
      5 C4         -2.3580    0.6680   -1.6720 c1        1 7CA     -0.056000
      6 C5         -0.9890   -0.3610   -3.8710 c1        1 7CA     -0.214000
      7 C6         -0.3870   -0.3600   -2.6030 c1        1 7CA     -0.052000
      8 C7         -1.0710    0.1530   -1.5090 c1        1 7CA     -0.098000
      9 C8         -0.4820    0.1250   -0.2420 c1        1 7CA      0.111000
     10 O2         -0.9380   -0.7550    0.7070 o         1 7CA     -0.120000
     11 C9          0.5260    1.0660    0.0890 c1        1 7CA     -0.102000
     12 C10         1.0430    1.0950    1.3580 c1        1 7CA      0.317000
     13 C11         0.5740    0.1900    2.3330 c1        1 7CA     -0.260000
     14 C12        -0.4020   -0.7230    2.0150 c1        1 7CA      0.167000
     15 O3          1.8450    1.9520    1.6680 o         1 7CA     -0.309000
     16 C13         1.1960    0.1530    3.6110 c1        1 7CA      0.202000
     17 C14         0.8180   -0.8080    4.5440 c1        1 7CA     -0.348000
     18 C15        -0.1620   -1.7280    4.2280 c1        1 7CA      0.174000
     19 C16        -0.7830   -1.6920    2.9520 c1        1 7CA     -0.161000
     20 O4          2.1410    1.1260    3.9530 oh        1 7CA     -0.204000
     21 O10        -0.5660   -2.6840    5.1820 oh        1 7CA     -0.236000
     22 C17        -1.8460   -2.7710    2.5690 c3        1 7CA     -0.100000
     23 C18        -2.7500   -3.0520    3.7630 c3        1 7CA     -0.151000
     24 C19        -3.4940   -4.4410    3.5420 c3        1 7CA     -0.105000
     25 C20        -2.5030   -5.5830    3.7420 c3        1 7CA     -0.208500
     26 C21        -4.6530   -4.5780    4.5640 c3        1 7CA     -0.208500
     27 O5          1.1050    1.9430   -0.9740 os        1 7CA     -0.232000
     28 C22         2.3240    2.4010   -0.5780 c3        1 7CA      0.127000
     29 O6          2.4270    3.8240   -0.9190 os        1 7CA     -0.246000
     30 C23         3.4070    1.5640   -1.2480 c3        1 7CA     -0.046000
     31 O7          4.6730    1.9020   -0.6720 oh        1 7CA     -0.327000
     32 C24         3.4710    1.8000   -2.7140 c3        1 7CA      0.050000
     33 O8          4.6430    1.1060   -3.2560 oh        1 7CA     -0.303000
     34 C25         3.5730    3.2340   -3.0430 c3        1 7CA     -0.030000
     35 O9          3.4500    3.3910   -4.4590 oh        1 7CA     -0.306000
     36 C26         2.4940    4.0640   -2.3630 c3        1 7CA     -0.007000
     37 C27         2.7850    5.5150   -2.5950 c3        1 7CA     -0.216000
     38 H11        -3.0130    1.2450   -7.0160 h1        1 7CA      0.087000
     39 H12        -2.8950    2.0940   -5.6620 h1        1 7CA      0.087000
     40 H13        -1.6200    1.3790   -6.2350 h1        1 7CA      0.087000
     41 H3         -3.8230    1.0130   -3.0450 ha        1 7CA      0.154000
     42 H4         -2.8580    1.0420   -0.8760 ha        1 7CA      0.165000
     43 H5         -0.5050   -0.7220   -4.6410 ha        1 7CA      0.142000
     44 H6          0.4970   -0.7140   -2.4930 ha        1 7CA      0.146000
     45 H14         1.2400   -0.8320    5.4090 ha        1 7CA      0.144000
     46 HO4         2.6660    0.8160    4.6480 ho        1 7CA      0.222000
     47 HO10        0.1470   -2.9950    5.6090 ho        1 7CA      0.226000
     48 H171       -1.4150   -3.5500    2.3210 hc        1 7CA      0.097000
     49 H172       -2.3960   -2.4400    1.8050 hc        1 7CA      0.097000
     50 H181       -3.4070   -2.3410    3.8470 hc        1 7CA      0.086000
     51 H182       -2.2080   -3.0970    4.5860 hc        1 7CA      0.086000
     52 H19        -3.8600   -4.4770    2.6190 hc        1 7CA      0.084000
     53 H201       -3.0000   -6.4340    3.8690 hc        1 7CA      0.073167
     54 H202       -1.9230   -5.6580    2.9500 hc        1 7CA      0.073167
     55 H203       -1.9350   -5.3980    4.5600 hc        1 7CA      0.073167
     56 H211       -4.3340   -4.3460    5.4440 hc        1 7CA      0.073167
     57 H212       -5.3880   -3.9750    4.3120 hc        1 7CA      0.073167
     58 H213       -4.9880   -5.5360    4.5680 hc        1 7CA      0.073167
     59 H22         2.3970    2.3070    0.3530 h2        1 7CA      0.156000
     60 H23         3.2260    0.6230   -1.0850 h1        1 7CA      0.103000
     61 HO7         4.9320    1.2420   -0.0830 ho        1 7CA      0.220000
     62 H24         2.6760    1.4410   -3.1240 h1        1 7CA      0.138000
     63 HO8         4.4650    0.8170   -4.0610 ho        1 7CA      0.214000
     64 H25         4.4360    3.5570   -2.7670 h1        1 7CA      0.097000
     65 HO9         4.2190    3.5770   -4.7950 ho        1 7CA      0.199000
     66 H26         1.6260    3.8450   -2.7630 h1        1 7CA      0.107000
     67 H271        3.7020    5.7390   -2.2190 hc        1 7CA      0.088000
     68 H272        2.1200    6.0500   -2.1560 hc        1 7CA      0.088000
     69 H273        2.7720    5.6990   -3.5370 hc        1 7CA      0.088000
@<TRIPOS>BOND
     1    1    2 1   
     2    1   38 1   
     3    1   39 1   
     4    1   40 1   
     5    2    3 1   
     6    3    4 1   
     7    3    6 1   
     8    4    5 1   
     9    4   41 1   
    10    5   42 1   
    11    6   43 1   
    12    7    8 1   
    13    7   44 1   
    14    9   10 1   
    15   11   12 1   
    16   11   27 1   
    17   12   15 1   
    18   13   14 1   
    19   13   16 1   
    20   14   19 1   
    21   16   20 1   
    22   17   18 1   
    23   17   45 1   
    24   18   21 1   
    25   19   22 1   
    26   20   46 1   
    27   21   47 1   
    28   22   23 1   
    29   22   48 1   
    30   22   49 1   
    31   23   24 1   
    32   23   50 1   
    33   23   51 1   
    34   24   25 1   
    35   24   26 1   
    36   24   52 1   
    37   25   53 1   
    38   25   54 1   
    39   25   55 1   
    40   26   56 1   
    41   26   57 1   
    42   26   58 1   
    43   27   28 1   
    44   28   29 1   
    45   28   30 1   
    46   28   59 1   
    47   29   36 1   
    48   30   31 1   
    49   30   32 1   
    50   30   60 1   
    51   31   61 1   
    52   32   33 1   
    53   32   34 1   
    54   32   62 1   
    55   33   63 1   
    56   34   35 1   
    57   34   36 1   
    58   34   64 1   
    59   35   65 1   
    60   36   37 1   
    61   36   66 1   
    62   37   67 1   
    63   37   68 1   
    64   37   69 1   
@<TRIPOS>SUBSTRUCTURE
     1 7CA         1 TEMP              0 ****  ****    0 ROOT
