@<TRIPOS>MOLECULE
7CA
   69    72     1     0     0
SMALL
bcc


@<TRIPOS>ATOM
      1 C1          2.3420    6.1070   -0.5650 c3        1 7CA      0.111700
      2 O1          2.8170    4.8780   -1.1060 os        1 7CA     -0.320900
      3 C2          2.0250    3.7710   -0.8960 ca        1 7CA      0.149100
      4 C3          2.5140    2.5770   -1.4600 ca        1 7CA     -0.193500
      5 C4          1.7920    1.4010   -1.3030 ca        1 7CA     -0.053000
      6 C5          0.8190    3.7810   -0.1820 ca        1 7CA     -0.193500
      7 C6          0.1060    2.5950   -0.0330 ca        1 7CA     -0.053000
      8 C7          0.5860    1.3980   -0.5830 ca        1 7CA     -0.110800
      9 C8         -0.1730    0.1610   -0.4190 cc        1 7CA      0.196900
     10 O2         -1.5340    0.4280   -0.4120 os        1 7CA     -0.218200
     11 C9          0.3100   -1.1100   -0.3140 cd        1 7CA     -0.080100
     12 C10        -0.5780   -2.2760   -0.2070 c         1 7CA      0.602900
     13 C11        -2.0020   -1.9670   -0.2120 ca        1 7CA     -0.332600
     14 C12        -2.4240   -0.6240   -0.3020 ca        1 7CA      0.223100
     15 O3         -0.1290   -3.4360   -0.1140 o         1 7CA     -0.606100
     16 C13        -3.0070   -2.9640   -0.1270 ca        1 7CA      0.260100
     17 C14        -4.3660   -2.6200   -0.1190 ca        1 7CA     -0.241000
     18 C15        -4.7350   -1.2710   -0.2010 ca        1 7CA      0.223100
     19 C16        -3.7770   -0.2410   -0.2990 ca        1 7CA     -0.231300
     20 O4         -2.7630   -4.3010   -0.0410 oh        1 7CA     -0.493100
     21 O10        -6.0850   -1.0360   -0.1870 oh        1 7CA     -0.488100
     22 C17        -4.1820    1.1840   -0.4150 c3        1 7CA     -0.029100
     23 C18        -4.7000    1.7410    0.9000 c3        1 7CA     -0.083400
     24 C19        -5.5630    2.9780    0.6960 c3        1 7CA     -0.070700
     25 C20        -6.9500    2.6040    0.2130 c3        1 7CA     -0.093600
     26 C21        -5.6570    3.7670    1.9860 c3        1 7CA     -0.093600
     27 O5          1.6730   -1.3290   -0.4300 os        1 7CA     -0.346900
     28 C22         2.2800   -2.0430    0.6550 c3        1 7CA      0.301900
     29 O6          2.6610   -1.0710    1.5920 os        1 7CA     -0.415600
     30 C23         3.4280   -2.8670    0.0390 c3        1 7CA      0.089100
     31 O7          3.8860   -3.8210    0.9830 oh        1 7CA     -0.599800
     32 C24         4.6410   -1.9980   -0.3350 c3        1 7CA      0.161100
     33 O8          5.7310   -2.8090   -0.7050 oh        1 7CA     -0.574800
     34 C25         4.9830   -1.0650    0.8390 c3        1 7CA      0.080100
     35 O9          6.0390   -0.2280    0.3980 oh        1 7CA     -0.579800
     36 C26         3.7490   -0.2240    1.2070 c3        1 7CA      0.109100
     37 C27         4.0140    0.6750    2.3990 c3        1 7CA     -0.097100
     38 H11         3.1310    6.8430   -0.8660 h1        1 7CA      0.047700
     39 H12         1.3560    6.3800   -1.0120 h1        1 7CA      0.047700
     40 H13         2.2660    6.0430    0.5470 h1        1 7CA      0.047700
     41 H3          3.4610    2.5900   -2.0190 ha        1 7CA      0.151000
     42 H4          2.1680    0.4630   -1.7460 ha        1 7CA      0.153500
     43 H5          0.4300    4.7080    0.2600 ha        1 7CA      0.151000
     44 H6         -0.8470    2.5950    0.5200 ha        1 7CA      0.153500
     45 H14        -5.1340   -3.4040   -0.0500 ha        1 7CA      0.177000
     46 HO4        -1.8070   -4.4790   -0.0760 ho        1 7CA      0.465000
     47 HO10       -6.2420   -0.0780   -0.2090 ho        1 7CA      0.436000
     48 H171       -3.3120    1.8070   -0.7600 hc        1 7CA      0.057700
     49 H172       -4.9710    1.2770   -1.2130 hc        1 7CA      0.057700
     50 H181       -5.2920    0.9610    1.4480 hc        1 7CA      0.047200
     51 H182       -3.8240    2.0000    1.5520 hc        1 7CA      0.047200
     52 H19        -5.0770    3.6290   -0.0850 hc        1 7CA      0.049700
     53 H201       -7.4550    1.9310    0.9490 hc        1 7CA      0.035533
     54 H202       -7.5750    3.5210    0.0880 hc        1 7CA      0.035533
     55 H203       -6.9000    2.0780   -0.7710 hc        1 7CA      0.035533
     56 H211       -4.6440    4.1030    2.3130 hc        1 7CA      0.035533
     57 H212       -6.3000    4.6680    1.8430 hc        1 7CA      0.035533
     58 H213       -6.1010    3.1400    2.7970 hc        1 7CA      0.035533
     59 H22         1.5540   -2.7040    1.2060 h2        1 7CA      0.106700
     60 H23         3.0440   -3.3850   -0.8840 h1        1 7CA      0.078700
     61 HO7         3.1860   -4.4770    1.0840 ho        1 7CA      0.417000
     62 H24         4.4030   -1.3910   -1.2530 h1        1 7CA      0.098700
     63 HO8         5.9660   -3.3460    0.0650 ho        1 7CA      0.414000
     64 H25         5.3090   -1.6800    1.7240 h1        1 7CA      0.058700
     65 HO9         6.3310    0.2730    1.1700 ho        1 7CA      0.401000
     66 H26         3.4330    0.3860    0.3130 h1        1 7CA      0.064700
     67 H271        4.4450    0.0880    3.2450 hc        1 7CA      0.048033
     68 H272        4.7270    1.4800    2.1030 hc        1 7CA      0.048033
     69 H273        3.0590    1.1400    2.7430 hc        1 7CA      0.048033
@<TRIPOS>BOND
     1    1    2 1   
     2    1   38 1   
     3    1   39 1   
     4    1   40 1   
     5    2    3 1   
     6    3    4 ar  
     7    3    6 ar  
     8    4    5 ar  
     9    4   41 1   
    10    5    8 ar  
    11    5   42 1   
    12    6    7 ar  
    13    6   43 1   
    14    7    8 ar  
    15    7   44 1   
    16    8    9 1   
    17    9   10 1   
    18    9   11 2   
    19   10   14 1   
    20   11   12 1   
    21   11   27 1   
    22   12   13 1   
    23   12   15 2   
    24   13   14 ar  
    25   13   16 ar  
    26   14   19 ar  
    27   16   17 ar  
    28   16   20 1   
    29   17   18 ar  
    30   17   45 1   
    31   18   19 ar  
    32   18   21 1   
    33   19   22 1   
    34   20   46 1   
    35   21   47 1   
    36   22   23 1   
    37   22   48 1   
    38   22   49 1   
    39   23   24 1   
    40   23   50 1   
    41   23   51 1   
    42   24   25 1   
    43   24   26 1   
    44   24   52 1   
    45   25   53 1   
    46   25   54 1   
    47   25   55 1   
    48   26   56 1   
    49   26   57 1   
    50   26   58 1   
    51   27   28 1   
    52   28   29 1   
    53   28   30 1   
    54   28   59 1   
    55   29   36 1   
    56   30   31 1   
    57   30   32 1   
    58   30   60 1   
    59   31   61 1   
    60   32   33 1   
    61   32   34 1   
    62   32   62 1   
    63   33   63 1   
    64   34   35 1   
    65   34   36 1   
    66   34   64 1   
    67   35   65 1   
    68   36   37 1   
    69   36   66 1   
    70   37   67 1   
    71   37   68 1   
    72   37   69 1   
@<TRIPOS>SUBSTRUCTURE
     1 7CA         1 TEMP              0 ****  ****    0 ROOT
