@<TRIPOS>MOLECULE
7CA
   69    72     1     0     0
SMALL
bcc


@<TRIPOS>ATOM
      1 C1         -1.1360   -1.1390    0.3070 c3        1 7CA      0.111700
      2 O1          0.1870   -0.6170    0.3800 os        1 7CA     -0.322900
      3 C2          0.7220   -0.4840    1.6430 ca        1 7CA      0.148100
      4 C3          2.0270    0.0440    1.6810 ca        1 7CA     -0.192500
      5 C4          2.6580    0.2180    2.9050 ca        1 7CA     -0.051500
      6 C5          0.0610   -0.8370    2.8270 ca        1 7CA     -0.192500
      7 C6          0.7060   -0.6580    4.0470 ca        1 7CA     -0.051500
      8 C7          2.0020   -0.1260    4.0990 ca        1 7CA     -0.106800
      9 C8          2.6670    0.0610    5.3850 cc        1 7CA      0.183900
     10 O2          2.2930   -0.9420    6.2730 os        1 7CA     -0.212200
     11 C9          3.5550    1.0340    5.7340 cd        1 7CA     -0.083100
     12 C10         4.1790    1.1010    7.0680 c         1 7CA      0.595900
     13 C11         3.7640    0.0270    7.9690 ca        1 7CA     -0.278600
     14 C12         2.8400   -0.9430    7.5420 ca        1 7CA      0.212100
     15 O3          4.9730    2.0020    7.3760 o         1 7CA     -0.550100
     16 C13         4.2680   -0.0820    9.2870 ca        1 7CA      0.247100
     17 C14         3.8600   -1.1180   10.1330 ca        1 7CA     -0.347000
     18 C15         2.9340   -2.0630    9.6640 ca        1 7CA      0.218100
     19 C16         2.4000   -2.0020    8.3640 ca        1 7CA     -0.167300
     20 O4          5.1620    0.8690    9.6910 oh        1 7CA     -0.451100
     21 O10         2.5100   -3.0980   10.4590 oh        1 7CA     -0.483100
     22 C17         1.4300   -3.0130    7.8690 c3        1 7CA     -0.016100
     23 C18         0.0150   -2.4650    7.8340 c3        1 7CA     -0.072400
     24 C19        -0.9740   -3.4780    7.2740 c3        1 7CA     -0.068700
     25 C20        -1.3330   -4.5270    8.3070 c3        1 7CA     -0.090100
     26 C21        -2.2240   -2.7710    6.7900 c3        1 7CA     -0.090100
     27 O5          3.9760    1.9420    4.7770 os        1 7CA     -0.348900
     28 C22         3.8520    3.3230    5.1500 c3        1 7CA      0.309900
     29 O6          2.8010    3.8100    4.3610 os        1 7CA     -0.411600
     30 C23         5.2330    3.9740    4.9280 c3        1 7CA      0.091100
     31 O7          5.2750    5.2390    5.5680 oh        1 7CA     -0.604800
     32 C24         5.5220    4.2100    3.4420 c3        1 7CA      0.113100
     33 O8          6.6560    5.0300    3.2480 oh        1 7CA     -0.599800
     34 C25         4.2990    4.8290    2.7450 c3        1 7CA      0.084100
     35 O9          4.5190    4.9270    1.3470 oh        1 7CA     -0.597800
     36 C26         3.0730    3.9280    2.9580 c3        1 7CA      0.150100
     37 C27         1.8280    4.5270    2.3380 c3        1 7CA     -0.088100
     38 H11        -1.3500   -1.1460   -0.7920 h1        1 7CA      0.046700
     39 H12        -1.1750   -2.1740    0.7230 h1        1 7CA      0.046700
     40 H13        -1.8530   -0.4720    0.8440 h1        1 7CA      0.046700
     41 H3          2.5290    0.3140    0.7410 ha        1 7CA      0.149000
     42 H4          3.6790    0.6330    2.9420 ha        1 7CA      0.153000
     43 H5         -0.9570   -1.2510    2.8070 ha        1 7CA      0.149000
     44 H6          0.1950   -0.9400    4.9820 ha        1 7CA      0.153000
     45 H14         4.2600   -1.1930   11.1530 ha        1 7CA      0.144000
     46 HO4         5.4290    0.6680   10.6020 ho        1 7CA      0.423000
     47 HO10        2.9660   -3.0320   11.3120 ho        1 7CA      0.427000
     48 H171        1.4660   -3.9240    8.5250 hc        1 7CA      0.060700
     49 H172        1.7310   -3.3280    6.8320 hc        1 7CA      0.060700
     50 H181       -0.3010   -2.1630    8.8660 hc        1 7CA      0.044200
     51 H182        0.0030   -1.5420    7.1940 hc        1 7CA      0.044200
     52 H19        -0.4970   -3.9950    6.3940 hc        1 7CA      0.046700
     53 H201       -0.4160   -5.0590    8.6590 hc        1 7CA      0.033533
     54 H202       -1.8290   -4.0560    9.1890 hc        1 7CA      0.033533
     55 H203       -2.0320   -5.2780    7.8670 hc        1 7CA      0.033533
     56 H211       -1.9710   -2.0470    5.9780 hc        1 7CA      0.033533
     57 H212       -2.7060   -2.2110    7.6270 hc        1 7CA      0.033533
     58 H213       -2.9580   -3.5120    6.3910 hc        1 7CA      0.033533
     59 H22         3.5070    3.4650    6.2130 h2        1 7CA      0.101700
     60 H23         6.0150    3.2910    5.3680 h1        1 7CA      0.085700
     61 HO7         5.3050    5.0690    6.5180 ho        1 7CA      0.422000
     62 H24         5.7870    3.2290    2.9550 h1        1 7CA      0.095700
     63 HO8         6.5490    5.8130    3.8070 ho        1 7CA      0.421000
     64 H25         4.1040    5.8540    3.1680 h1        1 7CA      0.060700
     65 HO9         5.4150    5.2750    1.2360 ho        1 7CA      0.418000
     66 H26         3.2780    2.9030    2.5380 h1        1 7CA      0.060700
     67 H271        1.5700    5.4920    2.8350 hc        1 7CA      0.051033
     68 H272        2.0230    4.7110    1.2540 hc        1 7CA      0.051033
     69 H273        0.9680    3.8260    2.4520 hc        1 7CA      0.051033
@<TRIPOS>BOND
     1    1    2 1   
     2    1   38 1   
     3    1   39 1   
     4    1   40 1   
     5    2    3 1   
     6    3    4 ar  
     7    3    6 ar  
     8    4    5 ar  
     9    4   41 1   
    10    5    8 ar  
    11    5   42 1   
    12    6    7 ar  
    13    6   43 1   
    14    7    8 ar  
    15    7   44 1   
    16    8    9 1   
    17    9   10 1   
    18    9   11 2   
    19   10   14 1   
    20   11   12 1   
    21   11   27 1   
    22   12   13 1   
    23   12   15 2   
    24   13   14 ar  
    25   13   16 ar  
    26   14   19 ar  
    27   16   17 ar  
    28   16   20 1   
    29   17   18 ar  
    30   17   45 1   
    31   18   19 ar  
    32   18   21 1   
    33   19   22 1   
    34   20   46 1   
    35   21   47 1   
    36   22   23 1   
    37   22   48 1   
    38   22   49 1   
    39   23   24 1   
    40   23   50 1   
    41   23   51 1   
    42   24   25 1   
    43   24   26 1   
    44   24   52 1   
    45   25   53 1   
    46   25   54 1   
    47   25   55 1   
    48   26   56 1   
    49   26   57 1   
    50   26   58 1   
    51   27   28 1   
    52   28   29 1   
    53   28   30 1   
    54   28   59 1   
    55   29   36 1   
    56   30   31 1   
    57   30   32 1   
    58   30   60 1   
    59   31   61 1   
    60   32   33 1   
    61   32   34 1   
    62   32   62 1   
    63   33   63 1   
    64   34   35 1   
    65   34   36 1   
    66   34   64 1   
    67   35   65 1   
    68   36   37 1   
    69   36   66 1   
    70   37   67 1   
    71   37   68 1   
    72   37   69 1   
@<TRIPOS>SUBSTRUCTURE
     1 7CA         1 TEMP              0 ****  ****    0 ROOT
