@<TRIPOS>MOLECULE
7CA
   69    72     1     0     0
SMALL
bcc


@<TRIPOS>ATOM
      1 C1         -0.6430   -0.9940    0.1680 c3        1 7CA      0.111700
      2 O1          0.7010   -0.5490    0.3200 os        1 7CA     -0.321900
      3 C2          1.1610   -0.4250    1.6140 ca        1 7CA      0.148100
      4 C3          2.4900    0.0280    1.7290 ca        1 7CA     -0.191500
      5 C4          3.0500    0.1840    2.9890 ca        1 7CA     -0.055500
      6 C5          0.4050   -0.7170    2.7570 ca        1 7CA     -0.191500
      7 C6          0.9810   -0.5560    4.0140 ca        1 7CA     -0.055500
      8 C7          2.3000   -0.1010    4.1420 ca        1 7CA     -0.107800
      9 C8          2.8970    0.0540    5.4660 cc        1 7CA      0.182900
     10 O2          2.4300   -0.9390    6.3190 os        1 7CA     -0.212200
     11 C9          3.8100    0.9820    5.8700 cd        1 7CA     -0.080100
     12 C10         4.3920    0.9820    7.2260 c         1 7CA      0.592900
     13 C11         3.8500   -0.0570    8.1010 ca        1 7CA     -0.277600
     14 C12         2.8930   -0.9680    7.6210 ca        1 7CA      0.210100
     15 O3          5.2590    1.7950    7.5730 o         1 7CA     -0.529100
     16 C13         4.2630   -0.1910    9.4480 ca        1 7CA      0.247100
     17 C14         3.7380   -1.1930   10.2690 ca        1 7CA     -0.347000
     18 C15         2.7840   -2.0800    9.7450 ca        1 7CA      0.217100
     19 C16         2.3360   -1.9920    8.4150 ca        1 7CA     -0.168300
     20 O4          5.1890    0.7040    9.9040 oh        1 7CA     -0.448100
     21 O10         2.2460   -3.0810   10.5150 oh        1 7CA     -0.484100
     22 C17         1.3350   -2.9420    7.8630 c3        1 7CA     -0.016100
     23 C18        -0.0380   -2.3050    7.7440 c3        1 7CA     -0.072400
     24 C19        -1.0540   -3.2550    7.1240 c3        1 7CA     -0.068700
     25 C20        -1.5390   -4.2770    8.1300 c3        1 7CA     -0.090100
     26 C21        -2.2250   -2.4710    6.5670 c3        1 7CA     -0.090100
     27 O5          4.3030    1.8870    4.9410 os        1 7CA     -0.342900
     28 C22         4.2130    3.2640    5.3120 c3        1 7CA      0.298900
     29 O6          2.9630    3.7270    4.8620 os        1 7CA     -0.434600
     30 C23         5.4020    3.9870    4.6500 c3        1 7CA      0.093100
     31 O7          5.5160    5.3040    5.1560 oh        1 7CA     -0.589800
     32 C24         5.2400    4.0120    3.1260 c3        1 7CA      0.073100
     33 O8          6.2360    4.7970    2.5010 oh        1 7CA     -0.597800
     34 C25         3.8470    4.5430    2.7450 c3        1 7CA      0.084100
     35 O9          3.6330    4.4370    1.3490 oh        1 7CA     -0.592800
     36 C26         2.7610    3.7080    3.4420 c3        1 7CA      0.142100
     37 C27         1.3810    4.2850    3.2050 c3        1 7CA     -0.087100
     38 H11        -0.7850   -1.0090   -0.9430 h1        1 7CA      0.047367
     39 H12        -1.3520   -0.2760    0.6470 h1        1 7CA      0.047367
     40 H13        -0.7700   -2.0180    0.5960 h1        1 7CA      0.047367
     41 H3          3.0650    0.2540    0.8190 ha        1 7CA      0.150000
     42 H4          4.0900    0.5370    3.0880 ha        1 7CA      0.153000
     43 H5         -0.6320   -1.0710    2.6760 ha        1 7CA      0.150000
     44 H6          0.3950   -0.7930    4.9180 ha        1 7CA      0.153000
     45 H14         4.0670   -1.2870   11.3120 ha        1 7CA      0.143000
     46 HO4         5.3840    0.4940   10.8310 ho        1 7CA      0.423000
     47 HO10        2.6520   -3.0390   11.3940 ho        1 7CA      0.427000
     48 H171        1.2740   -3.8500    8.5200 hc        1 7CA      0.060200
     49 H172        1.6770   -3.2790    6.8460 hc        1 7CA      0.060200
     50 H181       -0.3950   -1.9820    8.7560 hc        1 7CA      0.044200
     51 H182        0.0480   -1.3850    7.1060 hc        1 7CA      0.044200
     52 H19        -0.5580   -3.8020    6.2720 hc        1 7CA      0.046700
     53 H201       -0.6810   -4.8650    8.5360 hc        1 7CA      0.033533
     54 H202       -2.2570   -4.9840    7.6480 hc        1 7CA      0.033533
     55 H203       -2.0570   -3.7740    8.9820 hc        1 7CA      0.033533
     56 H211       -2.7200   -1.8800    7.3750 hc        1 7CA      0.033533
     57 H212       -2.9790   -3.1640    6.1230 hc        1 7CA      0.033533
     58 H213       -1.8790   -1.7660    5.7730 hc        1 7CA      0.033533
     59 H22         4.2050    3.4290    6.4260 h2        1 7CA      0.124700
     60 H23         6.3670    3.4830    4.9360 h1        1 7CA      0.117700
     61 HO7         4.6340    5.7010    5.1330 ho        1 7CA      0.411000
     62 H24         5.3780    2.9730    2.7120 h1        1 7CA      0.100700
     63 HO8         6.3610    5.5900    3.0420 ho        1 7CA      0.418000
     64 H25         3.7600    5.6250    3.0490 h1        1 7CA      0.039700
     65 HO9         4.4490    4.7370    0.9240 ho        1 7CA      0.420000
     66 H26         2.8200    2.6430    3.0780 h1        1 7CA      0.072700
     67 H271        0.6060    3.6260    3.6630 hc        1 7CA      0.050700
     68 H272        1.2970    5.3010    3.6580 hc        1 7CA      0.050700
     69 H273        1.2100    4.3570    2.1030 hc        1 7CA      0.050700
@<TRIPOS>BOND
     1    1    2 1   
     2    1   38 1   
     3    1   39 1   
     4    1   40 1   
     5    2    3 1   
     6    3    4 ar  
     7    3    6 ar  
     8    4    5 ar  
     9    4   41 1   
    10    5    8 ar  
    11    5   42 1   
    12    6    7 ar  
    13    6   43 1   
    14    7    8 ar  
    15    7   44 1   
    16    8    9 1   
    17    9   10 1   
    18    9   11 2   
    19   10   14 1   
    20   11   12 1   
    21   11   27 1   
    22   12   13 1   
    23   12   15 2   
    24   13   14 ar  
    25   13   16 ar  
    26   14   19 ar  
    27   16   17 ar  
    28   16   20 1   
    29   17   18 ar  
    30   17   45 1   
    31   18   19 ar  
    32   18   21 1   
    33   19   22 1   
    34   20   46 1   
    35   21   47 1   
    36   22   23 1   
    37   22   48 1   
    38   22   49 1   
    39   23   24 1   
    40   23   50 1   
    41   23   51 1   
    42   24   25 1   
    43   24   26 1   
    44   24   52 1   
    45   25   53 1   
    46   25   54 1   
    47   25   55 1   
    48   26   56 1   
    49   26   57 1   
    50   26   58 1   
    51   27   28 1   
    52   28   29 1   
    53   28   30 1   
    54   28   59 1   
    55   29   36 1   
    56   30   31 1   
    57   30   32 1   
    58   30   60 1   
    59   31   61 1   
    60   32   33 1   
    61   32   34 1   
    62   32   62 1   
    63   33   63 1   
    64   34   35 1   
    65   34   36 1   
    66   34   64 1   
    67   35   65 1   
    68   36   37 1   
    69   36   66 1   
    70   37   67 1   
    71   37   68 1   
    72   37   69 1   
@<TRIPOS>SUBSTRUCTURE
     1 7CA         1 TEMP              0 ****  ****    0 ROOT
