@<TRIPOS>MOLECULE
7CE
   37    40     1     0     0
SMALL
bcc


@<TRIPOS>ATOM
      1 C16         0.5690   -0.4450   -0.4300 c3        1 7CE      0.119700
      2 O1          1.9190   -0.1650   -0.0840 os        1 7CE     -0.346900
      3 C11         2.1900   -0.0180    1.2680 ca        1 7CE      0.087100
      4 C12         1.2280   -0.1700    2.2680 ca        1 7CE     -0.189000
      5 C13         1.5870   -0.0060    3.6060 ca        1 7CE     -0.109000
      6 C14         2.8970    0.3180    3.9420 ca        1 7CE     -0.151000
      7 C15         3.8630    0.4840    2.9510 ca        1 7CE     -0.081000
      8 C10         3.5390    0.3190    1.5930 ca        1 7CE      0.103600
      9 N3          4.4960    0.5670    0.5790 nu        1 7CE     -0.695300
     10 C2          5.6800   -0.2020    0.4820 ca        1 7CE      0.653200
     11 N           6.0850   -0.9810    1.5550 nb        1 7CE     -0.721000
     12 C1          7.2440   -1.6280    1.4790 ca        1 7CE      0.490200
     13 C3          6.4390   -0.0750   -0.7110 ca        1 7CE     -0.325300
     14 C4          7.6580   -0.7650   -0.7630 ca        1 7CE      0.029800
     15 N1          8.6210   -0.8490   -1.7580 na        1 7CE     -0.176400
     16 C5          9.6590   -1.6870   -1.2940 cc        1 7CE     -0.131900
     17 C6          9.3590   -2.1450   -0.0040 cd        1 7CE     -0.110200
     18 C           8.0910   -1.5730    0.3580 ca        1 7CE     -0.265100
     19 C7         10.8210   -1.9920   -2.0650 cc        1 7CE      0.233200
     20 C9         11.9530   -2.7750   -1.8390 cd        1 7CE      0.246900
     21 N2         12.7880   -2.7110   -2.9620 nd        1 7CE     -0.661000
     22 C8         12.1750   -1.9170   -3.8310 cc        1 7CE      0.484300
     23 O          10.9500   -1.4310   -3.3490 os        1 7CE     -0.396800
     24 H161        0.2460   -1.4240    0.0010 h1        1 7CE      0.045033
     25 H162        0.5940   -0.4970   -1.5480 h1        1 7CE      0.045033
     26 H163       -0.1060    0.3770   -0.0890 h1        1 7CE      0.045033
     27 H12         0.1900   -0.4270    2.0140 ha        1 7CE      0.136000
     28 H13         0.8280   -0.1360    4.3910 ha        1 7CE      0.132000
     29 H14         3.1790    0.4480    4.9970 ha        1 7CE      0.135000
     30 H15         4.8940    0.7450    3.2410 ha        1 7CE      0.154000
     31 H3          4.0750    0.7240   -0.3180 hn        1 7CE      0.423800
     32 HA          6.0960    0.5380   -1.5520 ha        1 7CE      0.147000
     33 H1          7.5140   -2.2330    2.3650 h4        1 7CE      0.025100
     34 HB          8.6120   -0.3950   -2.6330 hn        1 7CE      0.312700
     35 H6          9.9680   -2.8050    0.6060 ha        1 7CE      0.162000
     36 H9         12.2200   -3.3680   -0.9640 h4        1 7CE      0.058100
     37 H8         12.4560   -1.5860   -4.8310 h5        1 7CE      0.090100
@<TRIPOS>BOND
     1    1    2 1   
     2    1   24 1   
     3    1   25 1   
     4    1   26 1   
     5    2    3 1   
     6    3    4 ar  
     7    3    8 ar  
     8    4    5 ar  
     9    4   27 1   
    10    5    6 ar  
    11    5   28 1   
    12    6    7 ar  
    13    6   29 1   
    14    7    8 ar  
    15    7   30 1   
    16    8    9 1   
    17    9   10 1   
    18    9   31 1   
    19   10   11 ar  
    20   10   13 ar  
    21   11   12 ar  
    22   12   18 ar  
    23   12   33 1   
    24   13   14 ar  
    25   13   32 1   
    26   14   15 1   
    27   14   18 ar  
    28   15   16 1   
    29   15   34 1   
    30   16   17 2   
    31   16   19 1   
    32   17   18 1   
    33   17   35 1   
    34   19   20 2   
    35   19   23 1   
    36   20   21 1   
    37   20   36 1   
    38   21   22 2   
    39   22   23 1   
    40   22   37 1   
@<TRIPOS>SUBSTRUCTURE
     1 7CE         1 TEMP              0 ****  ****    0 ROOT
