@<TRIPOS>MOLECULE
7CE
   37    40     1     0     0
SMALL
bcc


@<TRIPOS>ATOM
      1 C16         5.3160   -2.4990   -0.9280 c3        1 7CE      0.119700
      2 O1          4.2700   -1.7460   -0.3280 os        1 7CE     -0.346900
      3 C11         4.5560   -0.4220   -0.0330 ca        1 7CE      0.087100
      4 C12         5.7760    0.1890   -0.3300 ca        1 7CE     -0.189000
      5 C13         5.9790    1.5280    0.0000 ca        1 7CE     -0.109000
      6 C14         4.9740    2.2510    0.6330 ca        1 7CE     -0.151000
      7 C15         3.7560    1.6490    0.9450 ca        1 7CE     -0.081000
      8 C10         3.5130    0.3030    0.6190 ca        1 7CE      0.103600
      9 N3          2.3100   -0.3360    1.0070 nh        1 7CE     -0.695300
     10 C2          1.0560    0.1010    0.5200 ca        1 7CE      0.653200
     11 N           0.9440    1.3490   -0.0740 nb        1 7CE     -0.721000
     12 C1         -0.2570    1.7800   -0.4470 ca        1 7CE      0.490200
     13 C3         -0.0570   -0.7540    0.7340 ca        1 7CE     -0.325300
     14 C4         -1.3120   -0.2750    0.3340 ca        1 7CE      0.029800
     15 N1         -2.5750   -0.8450    0.4020 na        1 7CE     -0.176400
     16 C5         -3.5000    0.0700   -0.1480 cc        1 7CE     -0.131900
     17 C6         -2.8290    1.2250   -0.5740 cd        1 7CE     -0.110200
     18 C          -1.4360    1.0320   -0.2790 ca        1 7CE     -0.265100
     19 C7         -4.9000   -0.1920   -0.2350 cc        1 7CE      0.233200
     20 C9         -5.9890    0.5280   -0.7260 cd        1 7CE      0.246900
     21 N2         -7.1560   -0.2270   -0.5520 nd        1 7CE     -0.661000
     22 C8         -6.7760   -1.3610    0.0240 cc        1 7CE      0.484300
     23 O          -5.3930   -1.4160    0.2530 os        1 7CE     -0.396800
     24 H161        4.8660   -3.5170   -1.0490 h1        1 7CE      0.045033
     25 H162        5.5900   -2.0700   -1.9230 h1        1 7CE      0.045033
     26 H163        6.2090   -2.5400   -0.2590 h1        1 7CE      0.045033
     27 H12         6.5770   -0.3730   -0.8300 ha        1 7CE      0.136000
     28 H13         6.9390    2.0070   -0.2430 ha        1 7CE      0.132000
     29 H14         5.1360    3.3070    0.8940 ha        1 7CE      0.135000
     30 H15         2.9760    2.2410    1.4500 ha        1 7CE      0.154000
     31 H3          2.3870   -1.3360    1.0050 hn        1 7CE      0.423800
     32 HA          0.0540   -1.7420    1.1960 ha        1 7CE      0.147000
     33 H1         -0.2830    2.7810   -0.9150 h4        1 7CE      0.025100
     34 HB         -2.8090   -1.7240    0.7820 hn        1 7CE      0.312700
     35 H6         -3.2770    2.0990   -1.0380 ha        1 7CE      0.162000
     36 H9         -6.0140    1.5180   -1.1830 h4        1 7CE      0.058100
     37 H8         -7.3450   -2.2360    0.3420 h5        1 7CE      0.090100
@<TRIPOS>BOND
     1    1    2 1   
     2    1   24 1   
     3    1   25 1   
     4    1   26 1   
     5    2    3 1   
     6    3    4 ar  
     7    3    8 ar  
     8    4    5 ar  
     9    4   27 1   
    10    5    6 ar  
    11    5   28 1   
    12    6    7 ar  
    13    6   29 1   
    14    7    8 ar  
    15    7   30 1   
    16    8    9 1   
    17    9   10 1   
    18    9   31 1   
    19   10   11 ar  
    20   10   13 ar  
    21   11   12 ar  
    22   12   18 ar  
    23   12   33 1   
    24   13   14 ar  
    25   13   32 1   
    26   14   15 1   
    27   14   18 ar  
    28   15   16 1   
    29   15   34 1   
    30   16   17 2   
    31   16   19 1   
    32   17   18 1   
    33   17   35 1   
    34   19   20 2   
    35   19   23 1   
    36   20   21 1   
    37   20   36 1   
    38   21   22 2   
    39   22   23 1   
    40   22   37 1   
@<TRIPOS>SUBSTRUCTURE
     1 7CE         1 TEMP              0 ****  ****    0 ROOT
