@<TRIPOS>MOLECULE
7CE
   37    30     1     0     0
SMALL
bcc


@<TRIPOS>ATOM
      1 C16        -5.0430   -2.1960    1.0040 c3        1 7CE     -0.070000
      2 O1         -3.6490   -2.1290    1.2760 os        1 7CE     -0.230000
      3 C11        -3.2910   -1.1050    2.1880 c2        1 7CE      0.042000
      4 C12        -3.7780   -1.1330    3.4910 c2        1 7CE     -0.189000
      5 C13        -3.4030   -0.1440    4.3950 c1        1 7CE     -0.109000
      6 C14        -2.5400    0.8720    3.9960 c1        1 7CE     -0.116000
      7 C15        -2.0530    0.9000    2.6930 c1        1 7CE     -0.116000
      8 C10        -2.4280   -0.0890    1.7890 c1        1 7CE      0.022000
      9 N3         -1.9650   -0.0320    0.4290 n3        1 7CE     -0.216000
     10 C2         -0.5570    0.0160    0.1510 c2        1 7CE      0.132000
     11 N          -0.8930    0.9760   -0.7680 n2        1 7CE     -0.195000
     12 C1          0.0320    1.4040   -1.6820 c1        1 7CE      0.025000
     13 C3          0.7260   -0.5260    0.1570 c1        1 7CE     -0.260000
     14 C4          1.6650   -0.0930   -0.7680 c1        1 7CE      0.075000
     15 N1          2.9940   -0.4430   -0.9800 n1        1 7CE     -0.199000
     16 C5          3.4650    0.2990   -2.0220 c1        1 7CE      0.005000
     17 C6          2.4440    1.1100   -2.4630 c1        1 7CE     -0.122000
     18 C           1.3310    0.8600   -1.6800 c1        1 7CE     -0.188000
     19 C7          4.7330    0.4700   -2.8440 c1        1 7CE     -0.006000
     20 C9          5.7480    1.3600   -2.5860 c1        1 7CE     -0.153000
     21 N2          6.6340    1.2850   -3.5970 n2        1 7CE     -0.135000
     22 C8          6.1840    0.3580   -4.4840 c1        1 7CE     -0.045000
     23 O           5.0050   -0.1420   -4.0110 os        1 7CE     -0.138000
     24 H161       -5.4310   -1.2960    1.0590 h1        1 7CE      0.084333
     25 H162       -5.4780   -2.7820    1.6630 h1        1 7CE      0.084333
     26 H163       -5.1830   -2.5580    0.1010 h1        1 7CE      0.084333
     27 H12        -4.3860   -1.8490    3.7720 ha        1 7CE      0.136000
     28 H13        -3.7470   -0.1630    5.3140 ha        1 7CE      0.132000
     29 H14        -2.2760    1.5700    4.6340 ha        1 7CE      0.144500
     30 H15        -1.4460    1.6160    2.4120 ha        1 7CE      0.144500
     31 H3         -2.5700   -0.0000   -0.2610 hn        1 7CE      0.219000
     32 HA          0.9560   -1.2370    0.7940 ha        1 7CE      0.147000
     33 H1         -0.2100    2.0920   -2.3400 ha        1 7CE      0.162000
     34 HB          3.4700   -1.0630   -0.5030 DU        1 7CE      0.211750
     35 H6          2.4960    1.7520   -3.2040 DU        1 7CE      0.211750
     36 H9          5.8150    1.9470   -1.8020 DU        1 7CE      0.211750
     37 H8          6.6280    0.0940   -5.3180 DU        1 7CE      0.211750
@<TRIPOS>BOND
     1    1    2 1   
     2    1   24 1   
     3    1   25 1   
     4    1   26 1   
     5    2    3 1   
     6    3    4 1   
     7    3    8 1   
     8    4    5 1   
     9    4   27 1   
    10    5   28 1   
    11    6    7 1   
    12    6   29 1   
    13    7   30 1   
    14    8    9 1   
    15    9   10 1   
    16    9   31 1   
    17   10   11 1   
    18   10   13 1   
    19   11   12 1   
    20   12   33 1   
    21   13   32 1   
    22   14   18 1   
    23   15   16 1   
    24   16   17 1   
    25   17   18 1   
    26   19   20 1   
    27   19   23 1   
    28   20   21 1   
    29   21   22 1   
    30   22   23 1   
@<TRIPOS>SUBSTRUCTURE
     1 7CE         1 TEMP              0 ****  ****    0 ROOT
