@<TRIPOS>MOLECULE
7CE
   38    41     1     0     0
SMALL
bcc


@<TRIPOS>ATOM
      1 C16         1.7870    1.5370   -0.4860 c3        1 7CE      0.116700
      2 O1          2.5130    0.3600   -0.1180 os        1 7CE     -0.367900
      3 C11         2.6910    0.1380    1.2290 ca        1 7CE      0.161100
      4 C12         2.3350    1.0460    2.2360 ca        1 7CE     -0.185000
      5 C13         2.5710    0.7280    3.5690 ca        1 7CE     -0.040000
      6 C14         3.1600   -0.4910    3.9170 ca        1 7CE     -0.142000
      7 C15         3.5180   -1.4060    2.9350 ca        1 7CE     -0.058000
      8 C10         3.2790   -1.1040    1.5810 ca        1 7CE     -0.091400
      9 N3          3.6320   -2.0740    0.5420 n4        1 7CE     -0.594100
     10 C2          5.0990   -2.1790    0.3340 ca        1 7CE      0.446200
     11 N           5.7360   -3.1520    1.0670 nb        1 7CE     -0.686000
     12 C1          7.0500   -3.2960    0.9080 ca        1 7CE      0.484200
     13 C3          5.7110   -1.2980   -0.5710 ca        1 7CE     -0.185300
     14 C4          7.0980   -1.4650   -0.7280 ca        1 7CE     -0.032200
     15 N1          8.0210   -0.8010   -1.5210 na        1 7CE     -0.149400
     16 C5          9.2870   -1.3730   -1.2920 cc        1 7CE     -0.043900
     17 C6          9.1810   -2.4100   -0.3470 cd        1 7CE     -0.147200
     18 C           7.8020   -2.4900    0.0280 ca        1 7CE     -0.175100
     19 C7         10.4730   -0.9270   -1.9500 cc        1 7CE      0.163200
     20 C9         11.8110   -1.3150   -1.9010 cd        1 7CE      0.314900
     21 N2         12.5510   -0.5130   -2.7760 nd        1 7CE     -0.655000
     22 C8         11.6840    0.3280   -3.3320 cc        1 7CE      0.527300
     23 O          10.3750    0.1360   -2.8720 os        1 7CE     -0.396800
     24 H161        2.3620    2.4490   -0.1930 h1        1 7CE      0.067033
     25 H162        1.7160    1.4500   -1.6010 h1        1 7CE      0.067033
     26 H163        0.7730    1.5330   -0.0190 h1        1 7CE      0.067033
     27 H12         1.8730    2.0100    1.9740 ha        1 7CE      0.168000
     28 H13         2.2920    1.4470    4.3590 ha        1 7CE      0.167000
     29 H14         3.3440   -0.7320    4.9770 ha        1 7CE      0.170000
     30 H15         3.9910   -2.3620    3.2200 ha        1 7CE      0.172000
     31 H3          3.2570   -2.9940    0.8180 hn        1 7CE      0.470800
     32 HA          5.1550   -0.5230   -1.1180 ha        1 7CE      0.168000
     33 H1          7.5280   -4.0920    1.5110 h4        1 7CE      0.059100
     34 HB          7.8420   -0.0540   -2.1440 hn        1 7CE      0.329700
     35 H6          9.9930   -3.0310    0.0230 ha        1 7CE      0.185000
     36 H9         12.2890   -2.0990   -1.3090 h4        1 7CE      0.069100
     37 H8         11.8210    1.1240   -4.0700 h5        1 7CE      0.105100
     38 H32         3.2030   -1.7840   -0.3480 hn        1 7CE      0.470800
@<TRIPOS>BOND
     1    1    2 1   
     2    1   24 1   
     3    1   25 1   
     4    1   26 1   
     5    2    3 1   
     6    3    4 ar  
     7    3    8 ar  
     8    4    5 ar  
     9    4   27 1   
    10    5    6 ar  
    11    5   28 1   
    12    6    7 ar  
    13    6   29 1   
    14    7    8 ar  
    15    7   30 1   
    16    8    9 1   
    17    9   10 1   
    18    9   31 1   
    19    9   38 1   
    20   10   11 ar  
    21   10   13 ar  
    22   11   12 ar  
    23   12   18 ar  
    24   12   33 1   
    25   13   14 ar  
    26   13   32 1   
    27   14   15 1   
    28   14   18 ar  
    29   15   16 1   
    30   15   34 1   
    31   16   17 2   
    32   16   19 1   
    33   17   18 1   
    34   17   35 1   
    35   19   20 2   
    36   19   23 1   
    37   20   21 1   
    38   20   36 1   
    39   21   22 2   
    40   22   23 1   
    41   22   37 1   
@<TRIPOS>SUBSTRUCTURE
     1 7CE         1 TEMP              0 ****  ****    0 ROOT
