@<TRIPOS>MOLECULE
7CH
   35    38     1     0     0
SMALL
bcc


@<TRIPOS>ATOM
      1 O2P         0.7270    0.2310   -1.0860 o         1 7CH     -0.765300
      2 P           1.9070   -0.2380   -0.3920 p5        1 7CH      1.622500
      3 O1P         3.2360    0.5210   -0.8420 oh        1 7CH     -0.787400
      4 O3'         1.9400   -0.0010    1.2150 os        1 7CH     -0.528200
      5 C3'         3.1230   -0.4990    1.7770 c3        1 7CH      0.069100
      6 C4'         3.1730   -2.0350    1.6010 c3        1 7CH      0.049100
      7 C5'         3.4130   -2.3290    0.1260 c3        1 7CH      0.183400
      8 O5'         2.3290   -1.7710   -0.5920 os        1 7CH     -0.560200
      9 C2'         3.2730   -0.3500    3.2950 c3        1 7CH      0.128100
     10 O2'         2.0670   -0.5410    3.9980 oh        1 7CH     -0.582800
     11 C1'         4.1910   -1.5880    3.6520 c3        1 7CH      0.242800
     12 O4'         4.2040   -2.4700    2.4780 os        1 7CH     -0.403600
     13 N9          5.5340   -1.2230    3.9870 na        1 7CH     -0.181100
     14 C4          6.3030   -1.8290    5.0010 ca        1 7CH      0.495800
     15 C5          7.6640   -1.3380    4.8720 ca        1 7CH     -0.379400
     16 C7          7.6900   -0.4620    3.7300 cc        1 7CH     -0.139200
     17 C8          6.4060   -0.4320    3.2080 cd        1 7CH     -0.120100
     18 N3          5.9040   -2.6960    5.9820 nb        1 7CH     -0.735000
     19 C2          6.9090   -3.0490    6.8160 ca        1 7CH      0.684900
     20 N1          8.2160   -2.6750    6.8140 nb        1 7CH     -0.785000
     21 C6          8.6130   -1.7920    5.8380 ca        1 7CH      0.727200
     22 N6          9.9050   -1.3000    5.8210 nh        1 7CH     -0.946500
     23 H1          3.1500    1.1730   -1.5340 ho        1 7CH      0.493000
     24 H2          4.0000   -0.0020    1.2670 h1        1 7CH      0.082700
     25 H3          2.2110   -2.5140    1.9480 h1        1 7CH      0.090700
     26 H4          3.3980   -3.4300   -0.0880 h1        1 7CH      0.080200
     27 H5          4.3740   -1.8770   -0.2400 h1        1 7CH      0.080200
     28 H6          3.7310    0.6310    3.5830 h1        1 7CH      0.080700
     29 H7          1.3870   -0.0300    3.5330 ho        1 7CH      0.434000
     30 H8          3.7310   -2.1860    4.4930 h2        1 7CH      0.140700
     31 H9          8.5550    0.0790    3.3580 ha        1 7CH      0.155000
     32 H10         6.0190    0.1040    2.3390 h4        1 7CH      0.166000
     33 H11         6.6290   -3.7590    7.6250 h5        1 7CH      0.053100
     34 H12        10.5890   -1.7370    6.3910 hn        1 7CH      0.428300
     35 H13        10.2110   -0.8950    4.9700 hn        1 7CH      0.428300
@<TRIPOS>BOND
     1    1    2 2   
     2    2    3 1   
     3    2    4 1   
     4    2    8 1   
     5    3   23 1   
     6    4    5 1   
     7    5    6 1   
     8    5    9 1   
     9    5   24 1   
    10    6    7 1   
    11    6   12 1   
    12    6   25 1   
    13    7    8 1   
    14    7   26 1   
    15    7   27 1   
    16    9   10 1   
    17    9   11 1   
    18    9   28 1   
    19   10   29 1   
    20   11   12 1   
    21   11   13 1   
    22   11   30 1   
    23   13   14 1   
    24   13   17 1   
    25   14   15 ar  
    26   14   18 ar  
    27   15   16 1   
    28   15   21 ar  
    29   16   17 2   
    30   16   31 1   
    31   17   32 1   
    32   18   19 ar  
    33   19   20 ar  
    34   19   33 1   
    35   20   21 ar  
    36   21   22 1   
    37   22   34 1   
    38   22   35 1   
@<TRIPOS>SUBSTRUCTURE
     1 7CH         1 TEMP              0 ****  ****    0 ROOT
