@<TRIPOS>MOLECULE
7CH
   35    38     1     0     0
SMALL
bcc


@<TRIPOS>ATOM
      1 O2P         0.7320    0.1840   -1.1070 o         1 7CH     -0.765300
      2 P           1.9110   -0.2770   -0.4070 p5        1 7CH      1.622500
      3 O1P         3.2400    0.4780   -0.8630 oh        1 7CH     -0.787400
      4 O3'         1.9410   -0.0220    1.1980 os        1 7CH     -0.528200
      5 C3'         3.1250   -0.5130    1.7660 c3        1 7CH      0.069100
      6 C4'         3.1760   -2.0510    1.6070 c3        1 7CH      0.049100
      7 C5'         3.4190   -2.3610    0.1350 c3        1 7CH      0.183400
      8 O5'         2.3350   -1.8110   -0.5900 os        1 7CH     -0.560200
      9 C2'         3.2730   -0.3490    3.2830 c3        1 7CH      0.128100
     10 O2'         2.0650   -0.5330    3.9860 oh        1 7CH     -0.582800
     11 C1'         4.1900   -1.5820    3.6540 c3        1 7CH      0.242800
     12 O4'         4.2070   -2.4760    2.4890 os        1 7CH     -0.403600
     13 N9          5.5330   -1.2130    3.9880 na        1 7CH     -0.181100
     14 C4          6.3000   -1.8080    5.0090 ca        1 7CH      0.495800
     15 C5          7.6610   -1.3170    4.8780 ca        1 7CH     -0.379400
     16 C7          7.6890   -0.4520    3.7270 cc        1 7CH     -0.139200
     17 C8          6.4050   -0.4290    3.2020 cd        1 7CH     -0.120100
     18 N3          5.9010   -2.6650    5.9990 nb        1 7CH     -0.735000
     19 C2          6.9040   -3.0080    6.8380 ca        1 7CH      0.684900
     20 N1          8.2110   -2.6310    6.8350 nb        1 7CH     -0.785000
     21 C6          8.6080   -1.7590    5.8510 ca        1 7CH      0.727200
     22 N6          9.9000   -1.2650    5.8300 nv        1 7CH     -0.946500
     23 H1          3.1540    1.1230   -1.5620 ho        1 7CH      0.493000
     24 H2          4.0020   -0.0220    1.2520 h1        1 7CH      0.082700
     25 H3          2.2150   -2.5280    1.9580 h1        1 7CH      0.090700
     26 H4          4.3790   -1.9120   -0.2340 h1        1 7CH      0.080200
     27 H5          3.4050   -3.4640   -0.0680 h1        1 7CH      0.080200
     28 H6          3.7290    0.6360    3.5610 h1        1 7CH      0.080700
     29 H7          1.3860   -0.0280    3.5150 ho        1 7CH      0.434000
     30 H8          3.7290   -2.1720    4.5010 h2        1 7CH      0.140700
     31 H9          8.5540    0.0860    3.3500 ha        1 7CH      0.155000
     32 H10         6.0200    0.0970    2.3270 h4        1 7CH      0.166000
     33 H11         6.6230   -3.7090    7.6540 h5        1 7CH      0.053100
     34 H12        10.2080   -0.8690    4.9760 hn        1 7CH      0.428300
     35 H13        10.5840   -1.6960    6.4070 hn        1 7CH      0.428300
@<TRIPOS>BOND
     1    1    2 2   
     2    2    3 1   
     3    2    4 1   
     4    2    8 1   
     5    3   23 1   
     6    4    5 1   
     7    5    6 1   
     8    5    9 1   
     9    5   24 1   
    10    6    7 1   
    11    6   12 1   
    12    6   25 1   
    13    7    8 1   
    14    7   26 1   
    15    7   27 1   
    16    9   10 1   
    17    9   11 1   
    18    9   28 1   
    19   10   29 1   
    20   11   12 1   
    21   11   13 1   
    22   11   30 1   
    23   13   14 1   
    24   13   17 1   
    25   14   15 ar  
    26   14   18 ar  
    27   15   16 1   
    28   15   21 ar  
    29   16   17 2   
    30   16   31 1   
    31   17   32 1   
    32   18   19 ar  
    33   19   20 ar  
    34   19   33 1   
    35   20   21 ar  
    36   21   22 1   
    37   22   34 1   
    38   22   35 1   
@<TRIPOS>SUBSTRUCTURE
     1 7CH         1 TEMP              0 ****  ****    0 ROOT
