@<TRIPOS>MOLECULE
7CH
   36    39     1     0     0
SMALL
bcc


@<TRIPOS>ATOM
      1 O2P         0.4890    0.5540   -0.7190 o         1 7CH     -0.743300
      2 P           1.7240    0.0170   -0.2010 p5        1 7CH      1.627500
      3 O1P         3.0220    0.8560   -0.5880 oh        1 7CH     -0.794400
      4 O3'         1.8730   -0.0190    1.4260 os        1 7CH     -0.522200
      5 C3'         3.1090   -0.5370    1.8200 c3        1 7CH      0.081100
      6 C4'         3.2030   -2.0250    1.4030 c3        1 7CH      0.039100
      7 C5'         3.3340   -2.0680   -0.1160 c3        1 7CH      0.192400
      8 O5'         2.1730   -1.4600   -0.6400 os        1 7CH     -0.553200
      9 C2'         3.3620   -0.6120    3.3300 c3        1 7CH      0.131100
     10 O2'         2.2240   -0.9300    4.0920 oh        1 7CH     -0.581800
     11 C1'         4.3150   -1.8730    3.4310 c3        1 7CH      0.224800
     12 O4'         4.3210   -2.5330    2.1350 os        1 7CH     -0.397600
     13 N9          5.6860   -1.5430    3.7670 na        1 7CH     -0.160100
     14 C4          6.3080   -1.8490    4.9860 ca        1 7CH      0.483800
     15 C5          7.7260   -1.4380    4.8630 ca        1 7CH     -0.279400
     16 C7          7.8930   -0.9180    3.5380 cc        1 7CH     -0.221200
     17 C8          6.6510   -1.0100    2.9070 cd        1 7CH      0.000900
     18 N3          5.7920   -2.3970    6.1160 nb        1 7CH     -0.622000
     19 C2          6.6800   -2.5380    7.1300 ca        1 7CH      0.672900
     20 N1          8.0020   -2.2010    7.1490 nb        1 7CH     -0.687000
     21 C6          8.5020   -1.6550    6.0110 ca        1 7CH      0.500200
     22 N6          9.9320   -1.2820    6.0010 n4        1 7CH     -0.818300
     23 H1          2.9070    1.6050   -1.1710 ho        1 7CH      0.501000
     24 H2          3.9290    0.0700    1.3380 h1        1 7CH      0.081700
     25 H3          2.2950   -2.6070    1.7370 h1        1 7CH      0.104700
     26 H4          4.2420   -1.5140   -0.4730 h1        1 7CH      0.082200
     27 H5          3.3410   -3.1210   -0.5070 h1        1 7CH      0.082200
     28 H6          3.8300    0.3240    3.7300 h1        1 7CH      0.080700
     29 H7          1.4690   -0.4700    3.6920 ho        1 7CH      0.451000
     30 H8          3.9080   -2.6100    4.1860 h2        1 7CH      0.144700
     31 H9          8.8030   -0.5280    3.0920 ha        1 7CH      0.171000
     32 H10         6.3750   -0.7360    1.8810 h4        1 7CH      0.205000
     33 H11         6.2870   -2.9880    8.0720 h5        1 7CH      0.100100
     34 H12        10.1620   -0.8790    5.0870 hn        1 7CH      0.473133
     35 H13        10.5110   -2.1160    6.1690 hn        1 7CH      0.473133
     36 H63        10.1190   -0.5940    6.7420 hn        1 7CH      0.473133
@<TRIPOS>BOND
     1    1    2 2   
     2    2    3 1   
     3    2    4 1   
     4    2    8 1   
     5    3   23 1   
     6    4    5 1   
     7    5    6 1   
     8    5    9 1   
     9    5   24 1   
    10    6    7 1   
    11    6   12 1   
    12    6   25 1   
    13    7    8 1   
    14    7   26 1   
    15    7   27 1   
    16    9   10 1   
    17    9   11 1   
    18    9   28 1   
    19   10   29 1   
    20   11   12 1   
    21   11   13 1   
    22   11   30 1   
    23   13   14 1   
    24   13   17 1   
    25   14   15 ar  
    26   14   18 ar  
    27   15   16 1   
    28   15   21 ar  
    29   16   17 2   
    30   16   31 1   
    31   17   32 1   
    32   18   19 ar  
    33   19   20 ar  
    34   19   33 1   
    35   20   21 ar  
    36   21   22 1   
    37   22   34 1   
    38   22   35 1   
    39   22   36 1   
@<TRIPOS>SUBSTRUCTURE
     1 7CH         1 TEMP              0 ****  ****    0 ROOT
