@<TRIPOS>MOLECULE
7CL
   17    16     1     0     0
SMALL
bcc


@<TRIPOS>ATOM
      1 CL1        -3.5380    0.0000   -1.6780 cl        1 7CL     -0.200400
      2 C1         -1.7940    0.0000   -1.6780 c3        1 7CL      0.039000
      3 C2         -1.2900    0.0000   -0.2520 c3        1 7CL     -0.092400
      4 C3          0.2230    0.0000   -0.2520 c3        1 7CL     -0.080400
      5 C4          0.7270    0.0000    1.1750 c3        1 7CL     -0.079400
      6 C5          2.2400    0.0000    1.1750 c3        1 7CL     -0.093100
      7 H1         -1.4690   -0.7970   -2.1380 h1        1 7CL      0.063700
      8 H1A        -1.4690    0.7970   -2.1380 h1        1 7CL      0.063700
      9 H2         -1.6150   -0.7970    0.2080 hc        1 7CL      0.056700
     10 H2A        -1.6150    0.7970    0.2080 hc        1 7CL      0.056700
     11 H3          0.5490   -0.7970   -0.7120 hc        1 7CL      0.041700
     12 H3A         0.5490    0.7970   -0.7120 hc        1 7CL      0.041700
     13 H4          0.4020   -0.7970    1.6350 hc        1 7CL      0.040700
     14 H4A         0.4020    0.7970    1.6350 hc        1 7CL      0.040700
     15 H5          2.5660    0.7970    0.7150 hc        1 7CL      0.034367
     16 H5A         2.5660    0.0000    2.0950 hc        1 7CL      0.034367
     17 H5B         2.5660   -0.7970    0.7150 hc        1 7CL      0.034367
@<TRIPOS>BOND
     1    1    2 1   
     2    2    3 1   
     3    2    7 1   
     4    2    8 1   
     5    3    4 1   
     6    3    9 1   
     7    3   10 1   
     8    4    5 1   
     9    4   11 1   
    10    4   12 1   
    11    5    6 1   
    12    5   13 1   
    13    5   14 1   
    14    6   15 1   
    15    6   16 1   
    16    6   17 1   
@<TRIPOS>SUBSTRUCTURE
     1 7CL         1 TEMP              0 ****  ****    0 ROOT
