@<TRIPOS>MOLECULE
7CL
   17    16     1     0     0
SMALL
bcc


@<TRIPOS>ATOM
      1 CL1        -2.6930    0.1160   -0.0000 cl        1 7CL     -0.200400
      2 C1         -1.1300   -0.6860    0.0020 c3        1 7CL      0.039000
      3 C2          0.0060    0.3080   -0.0010 c3        1 7CL     -0.092400
      4 C3          1.3380   -0.4130    0.0010 c3        1 7CL     -0.080400
      5 C4          2.4900    0.5690   -0.0020 c3        1 7CL     -0.079400
      6 C5          3.8190   -0.1410    0.0000 c3        1 7CL     -0.093100
      7 H1         -1.1040   -1.3260    0.9160 h1        1 7CL      0.063700
      8 H1A        -1.1040   -1.3310   -0.9090 h1        1 7CL      0.063700
      9 H2         -0.0650    0.9680   -0.9050 hc        1 7CL      0.056700
     10 H2A        -0.0650    0.9730    0.9010 hc        1 7CL      0.056700
     11 H3          1.4090   -1.0730    0.9060 hc        1 7CL      0.041700
     12 H3A         1.4090   -1.0770   -0.9000 hc        1 7CL      0.041700
     13 H4          2.4160    1.2290   -0.9060 hc        1 7CL      0.040700
     14 H4A         2.4160    1.2340    0.8990 hc        1 7CL      0.040700
     15 H5          4.6540    0.6010   -0.0020 hc        1 7CL      0.034367
     16 H5A         3.9220   -0.7850    0.9070 hc        1 7CL      0.034367
     17 H5B         3.9220   -0.7900   -0.9030 hc        1 7CL      0.034367
@<TRIPOS>BOND
     1    1    2 1   
     2    2    3 1   
     3    2    7 1   
     4    2    8 1   
     5    3    4 1   
     6    3    9 1   
     7    3   10 1   
     8    4    5 1   
     9    4   11 1   
    10    4   12 1   
    11    5    6 1   
    12    5   13 1   
    13    5   14 1   
    14    6   15 1   
    15    6   16 1   
    16    6   17 1   
@<TRIPOS>SUBSTRUCTURE
     1 7CL         1 TEMP              0 ****  ****    0 ROOT
