@<TRIPOS>MOLECULE
7CP
   43    46     1     0     0
SMALL
bcc


@<TRIPOS>ATOM
      1 C1L         0.0430   -0.0350    0.0120 c3        1 7CP     -0.129400
      2 C1J         1.5600    0.0860    0.1500 c3        1 7CP      0.160800
      3 N1W         2.0710    0.0170    1.5100 n3        1 7CP     -0.722600
      4 C1A         1.9560    1.2620    2.2370 c3        1 7CP      0.150100
      5 C1K         1.5380   -1.1280    2.2290 c3        1 7CP      0.160800
      6 C1M         0.0250   -1.3310    2.1450 c3        1 7CP     -0.129400
      7 C1Y        -0.4870   -1.3270    0.6870 c3        1 7CP      0.134400
      8 N1N        -0.0500   -2.5260   -0.0130 ns        1 7CP     -0.548900
      9 C1O        -0.6180   -2.9590   -1.2010 c         1 7CP      0.731700
     10 O1D        -0.0490   -3.8270   -1.8910 o         1 7CP     -0.636500
     11 C1R        -1.9360   -2.3680   -1.5230 cc        1 7CP     -0.099300
     12 N1X        -2.6800   -2.5170   -2.6960 na        1 7CP     -0.007400
     13 C1B        -2.3150   -3.3130   -3.8270 c3        1 7CP      0.002600
     14 C1U        -3.8580   -1.7740   -2.5410 ca        1 7CP     -0.028200
     15 C1Q        -4.9550   -1.5670   -3.4080 ca        1 7CP      0.008400
     16 Cl1F       -5.0020   -2.2800   -4.9440 cl        1 7CP     -0.065400
     17 C1P        -5.9970   -0.7580   -2.9630 ca        1 7CP      0.038400
     18 Cl1E       -7.3470   -0.4670   -3.9520 cl        1 7CP     -0.066400
     19 C1H        -5.9770   -0.1520   -1.6860 ca        1 7CP     -0.140000
     20 C1I        -4.9130   -0.3410   -0.8270 ca        1 7CP     -0.072000
     21 C1T        -3.8450   -1.1450   -1.2330 ca        1 7CP     -0.079800
     22 C1S        -2.6120   -1.5390   -0.6130 cd        1 7CP     -0.118400
     23 C1V        -2.0530   -1.2140    0.7160 c3        1 7CP      0.071600
     24 C1G        -2.6230   -2.0780    1.7400 c1        1 7CP      0.214700
     25 N1C        -3.0990   -2.7600    2.5520 n1        1 7CP     -0.359800
     26 H1L        -0.4480    0.8470    0.4990 hc        1 7CP      0.062950
     27 H1LA       -0.2330   -0.0260   -1.0730 hc        1 7CP      0.062950
     28 H1J         2.0550   -0.7460   -0.4260 h1        1 7CP      0.057700
     29 H1JA        1.8850    1.0590   -0.3130 h1        1 7CP      0.057700
     30 H1A         0.8930    1.5790    2.4200 h1        1 7CP      0.033700
     31 H1AA        2.4700    1.1510    3.2280 h1        1 7CP      0.033700
     32 H1AB        2.4730    2.0700    1.6550 h1        1 7CP      0.033700
     33 H1K         2.0610   -2.0390    1.8170 h1        1 7CP      0.057700
     34 H1KA        1.8230   -1.0430    3.3150 h1        1 7CP      0.057700
     35 H1M        -0.2350   -2.2960    2.6510 hc        1 7CP      0.062950
     36 H1MA       -0.4980   -0.5030    2.6900 hc        1 7CP      0.062950
     37 HN1N        0.8660   -2.8540    0.2000 hn        1 7CP      0.329500
     38 H1B        -3.0950   -4.1020   -4.0040 h1        1 7CP      0.074367
     39 H1BA       -2.2340   -2.6620   -4.7390 h1        1 7CP      0.074367
     40 H1BB       -1.3250   -3.8120   -3.6390 h1        1 7CP      0.074367
     41 H1H        -6.8290    0.4760   -1.3810 ha        1 7CP      0.154000
     42 H1I        -4.9010    0.1290    0.1680 ha        1 7CP      0.144000
     43 H1V        -2.3160   -0.1480    0.9880 hc        1 7CP      0.092700
@<TRIPOS>BOND
     1    1    2 1   
     2    1    7 1   
     3    1   26 1   
     4    1   27 1   
     5    2    3 1   
     6    2   28 1   
     7    2   29 1   
     8    3    4 1   
     9    3    5 1   
    10    4   30 1   
    11    4   31 1   
    12    4   32 1   
    13    5    6 1   
    14    5   33 1   
    15    5   34 1   
    16    6    7 1   
    17    6   35 1   
    18    6   36 1   
    19    7    8 1   
    20    7   23 1   
    21    8    9 1   
    22    8   37 1   
    23    9   10 2   
    24    9   11 1   
    25   11   12 1   
    26   11   22 2   
    27   12   13 1   
    28   12   14 1   
    29   13   38 1   
    30   13   39 1   
    31   13   40 1   
    32   14   15 ar  
    33   14   21 ar  
    34   15   16 1   
    35   15   17 ar  
    36   17   18 1   
    37   17   19 ar  
    38   19   20 ar  
    39   19   41 1   
    40   20   21 ar  
    41   20   42 1   
    42   21   22 1   
    43   22   23 1   
    44   23   24 1   
    45   23   43 1   
    46   24   25 3   
@<TRIPOS>SUBSTRUCTURE
     1 7CP         1 TEMP              0 ****  ****    0 ROOT
