@<TRIPOS>MOLECULE
7CP
   43    46     1     0     0
SMALL
bcc


@<TRIPOS>ATOM
      1 C1L         0.0190    0.0060   -0.0190 c3        1 7CP     -0.129400
      2 C1J         1.5360    0.1410    0.1070 c3        1 7CP      0.160800
      3 N1W         2.0610    0.0650    1.4610 n3        1 7CP     -0.722600
      4 C1A         1.9410    1.3030    2.1990 c3        1 7CP      0.150100
      5 C1K         1.5450   -1.0910    2.1740 c3        1 7CP      0.160800
      6 C1M         0.0330   -1.3070    2.1030 c3        1 7CP     -0.129400
      7 C1Y        -0.4930   -1.2950    0.6500 c3        1 7CP      0.134400
      8 N1N        -0.0520   -2.4850   -0.0650 n         1 7CP     -0.548900
      9 C1O        -0.6260   -2.9130   -1.2500 c         1 7CP      0.731700
     10 O1D        -0.0560   -3.7700   -1.9530 o         1 7CP     -0.636500
     11 C1R        -1.9530   -2.3320   -1.5550 cc        1 7CP     -0.099300
     12 N1X        -2.7060   -2.4770   -2.7230 na        1 7CP     -0.007400
     13 C1B        -2.3440   -3.2600   -3.8640 c3        1 7CP      0.002600
     14 C1U        -3.8890   -1.7460   -2.5500 ca        1 7CP     -0.028200
     15 C1Q        -4.9960   -1.5420   -3.4050 ca        1 7CP      0.008400
     16 CL1F       -5.0510   -2.2420   -4.9470 cl        1 7CP     -0.065400
     17 C1P        -6.0420   -0.7460   -2.9440 ca        1 7CP      0.038400
     18 CL1E       -7.4030   -0.4590   -3.9180 cl        1 7CP     -0.066400
     19 C1H        -6.0150   -0.1510   -1.6620 ca        1 7CP     -0.140000
     20 C1I        -4.9420   -0.3370   -0.8150 ca        1 7CP     -0.072000
     21 C1T        -3.8690   -1.1290   -1.2370 ca        1 7CP     -0.079800
     22 C1S        -2.6280   -1.5170   -0.6320 cd        1 7CP     -0.118400
     23 C1V        -2.0600   -1.1980    0.6950 c3        1 7CP      0.071600
     24 C1G        -2.6120   -2.0760    1.7160 c1        1 7CP      0.214700
     25 N1C        -3.0740   -2.7690    2.5260 n1        1 7CP     -0.359800
     26 H1L        -0.4750    0.8800    0.4800 hc        1 7CP      0.062950
     27 H1LA       -0.2670    0.0220   -1.1010 hc        1 7CP      0.062950
     28 H1J         2.0330   -0.6820   -0.4820 h1        1 7CP      0.057700
     29 H1JA        1.8480    1.1210   -0.3510 h1        1 7CP      0.057700
     30 H1A         0.8760    1.6090    2.3940 h1        1 7CP      0.033700
     31 H1AA        2.4640    1.1880    3.1840 h1        1 7CP      0.033700
     32 H1AB        2.4450    2.1200    1.6200 h1        1 7CP      0.033700
     33 H1K         2.0720   -1.9940    1.7510 h1        1 7CP      0.057700
     34 H1KA        1.8390   -1.0120    3.2590 h1        1 7CP      0.057700
     35 H1M        -0.2140   -2.2790    2.6030 hc        1 7CP      0.062950
     36 H1MA       -0.4930   -0.4890    2.6600 hc        1 7CP      0.062950
     37 HN1N        0.8690   -2.8060    0.1380 hn        1 7CP      0.329500
     38 H1B        -3.1190   -4.0540   -4.0410 h1        1 7CP      0.074367
     39 H1BA       -2.2780   -2.6000   -4.7710 h1        1 7CP      0.074367
     40 H1BB       -1.3480   -3.7520   -3.6890 h1        1 7CP      0.074367
     41 H1H        -6.8700    0.4670   -1.3450 ha        1 7CP      0.154000
     42 H1I        -4.9240    0.1240    0.1840 ha        1 7CP      0.144000
     43 H1V        -2.3300   -0.1370    0.9780 hc        1 7CP      0.092700
@<TRIPOS>BOND
     1    1    2 1   
     2    1    7 1   
     3    1   26 1   
     4    1   27 1   
     5    2    3 1   
     6    2   28 1   
     7    2   29 1   
     8    3    4 1   
     9    3    5 1   
    10    4   30 1   
    11    4   31 1   
    12    4   32 1   
    13    5    6 1   
    14    5   33 1   
    15    5   34 1   
    16    6    7 1   
    17    6   35 1   
    18    6   36 1   
    19    7    8 1   
    20    7   23 1   
    21    8    9 1   
    22    8   37 1   
    23    9   10 2   
    24    9   11 1   
    25   11   12 1   
    26   11   22 2   
    27   12   13 1   
    28   12   14 1   
    29   13   38 1   
    30   13   39 1   
    31   13   40 1   
    32   14   15 ar  
    33   14   21 ar  
    34   15   16 1   
    35   15   17 ar  
    36   17   18 1   
    37   17   19 ar  
    38   19   20 ar  
    39   19   41 1   
    40   20   21 ar  
    41   20   42 1   
    42   21   22 1   
    43   22   23 1   
    44   23   24 1   
    45   23   43 1   
    46   24   25 3   
@<TRIPOS>SUBSTRUCTURE
     1 7CP         1 TEMP              0 ****  ****    0 ROOT
