@<TRIPOS>MOLECULE
7CP
   43    46     1     0     0
SMALL
bcc


@<TRIPOS>ATOM
      1 C1L        -2.7320   -0.2800   -1.3970 c3        1 7CP     -0.129400
      2 C1J        -4.0090    0.3340   -1.9680 c3        1 7CP      0.160800
      3 N1W        -5.2520   -0.1830   -1.4180 n3        1 7CP     -0.722600
      4 C1A        -5.6610   -1.4450   -1.9960 c3        1 7CP      0.150100
      5 C1K        -5.2390   -0.1850    0.0350 c3        1 7CP      0.160800
      6 C1M        -3.9950   -0.7800    0.6960 c3        1 7CP     -0.129400
      7 C1Y        -2.6880   -0.1640    0.1480 c3        1 7CP      0.134400
      8 N1N        -2.5490    1.2170    0.5880 n         1 7CP     -0.548900
      9 C1O        -1.3510    1.9100    0.5390 c         1 7CP      0.731700
     10 O1D        -1.3340    3.1490    0.6750 o         1 7CP     -0.636500
     11 C1R        -0.1410    1.0710    0.3860 cc        1 7CP     -0.099300
     12 N1X         1.1750    1.4920    0.1840 na        1 7CP     -0.007400
     13 C1B         1.6230    2.8490    0.1160 c3        1 7CP      0.002600
     14 C1U         1.9730    0.3420    0.0980 ca        1 7CP     -0.028200
     15 C1Q         3.3620    0.1800   -0.1050 ca        1 7CP      0.008400
     16 CL1F        4.3810    1.5200   -0.2940 cl        1 7CP     -0.065400
     17 C1P         3.8710   -1.1160   -0.1470 ca        1 7CP      0.038400
     18 CL1E        5.5300   -1.3840   -0.3870 cl        1 7CP     -0.066400
     19 C1H         3.0380   -2.2480    0.0060 ca        1 7CP     -0.140000
     20 C1I         1.6790   -2.1090    0.2020 ca        1 7CP     -0.072000
     21 C1T         1.1250   -0.8260    0.2510 ca        1 7CP     -0.079800
     22 C1S        -0.2090   -0.3310    0.4290 cd        1 7CP     -0.118400
     23 C1V        -1.4850   -1.0480    0.6360 c3        1 7CP      0.071600
     24 C1G        -1.6430   -1.4250    2.0330 c1        1 7CP      0.214700
     25 N1C        -1.7490   -1.7390    3.1470 n1        1 7CP     -0.359800
     26 H1L        -2.6840   -1.3650   -1.6740 hc        1 7CP      0.062950
     27 H1LA       -1.8420    0.2290   -1.8470 hc        1 7CP      0.062950
     28 H1J        -4.0070    1.4450   -1.7780 h1        1 7CP      0.057700
     29 H1JA       -4.0130    0.1820   -3.0840 h1        1 7CP      0.057700
     30 H1A        -4.9540   -2.2910   -1.7730 h1        1 7CP      0.033700
     31 H1AA       -6.6740   -1.7130   -1.5980 h1        1 7CP      0.033700
     32 H1AB       -5.7340   -1.3260   -3.1090 h1        1 7CP      0.033700
     33 H1K        -5.3570    0.8880    0.3600 h1        1 7CP      0.057700
     34 H1KA       -6.1400   -0.7490    0.4080 h1        1 7CP      0.057700
     35 H1M        -4.0690   -0.6260    1.8030 hc        1 7CP      0.062950
     36 H1MA       -3.9550   -1.8840    0.5030 hc        1 7CP      0.062950
     37 HN1N       -3.3860    1.7560    0.6250 hn        1 7CP      0.329500
     38 H1B         2.3730    3.0420    0.9290 h1        1 7CP      0.074367
     39 H1BA        2.1020    3.0400   -0.8820 h1        1 7CP      0.074367
     40 H1BB        0.7500    3.5460    0.2480 h1        1 7CP      0.074367
     41 H1H         3.4920   -3.2510   -0.0320 ha        1 7CP      0.154000
     42 H1I         1.0330   -2.9910    0.3240 ha        1 7CP      0.144000
     43 H1V        -1.4890   -2.0000    0.0250 hc        1 7CP      0.092700
@<TRIPOS>BOND
     1    1    2 1   
     2    1    7 1   
     3    1   26 1   
     4    1   27 1   
     5    2    3 1   
     6    2   28 1   
     7    2   29 1   
     8    3    4 1   
     9    3    5 1   
    10    4   30 1   
    11    4   31 1   
    12    4   32 1   
    13    5    6 1   
    14    5   33 1   
    15    5   34 1   
    16    6    7 1   
    17    6   35 1   
    18    6   36 1   
    19    7    8 1   
    20    7   23 1   
    21    8    9 1   
    22    8   37 1   
    23    9   10 2   
    24    9   11 1   
    25   11   12 1   
    26   11   22 2   
    27   12   13 1   
    28   12   14 1   
    29   13   38 1   
    30   13   39 1   
    31   13   40 1   
    32   14   15 ar  
    33   14   21 ar  
    34   15   16 1   
    35   15   17 ar  
    36   17   18 1   
    37   17   19 ar  
    38   19   20 ar  
    39   19   41 1   
    40   20   21 ar  
    41   20   42 1   
    42   21   22 1   
    43   22   23 1   
    44   23   24 1   
    45   23   43 1   
    46   24   25 3   
@<TRIPOS>SUBSTRUCTURE
     1 7CP         1 TEMP              0 ****  ****    0 ROOT
