@<TRIPOS>MOLECULE
7CP
   43    46     1     0     0
SMALL
bcc


@<TRIPOS>ATOM
      1 C1L         0.0300   -0.0020    0.0410 c3        1 7CP     -0.129400
      2 C1J         1.5450    0.1300    0.1820 c3        1 7CP      0.160800
      3 N1W         2.0560    0.0480    1.5400 n3        1 7CP     -0.722600
      4 C1A         1.9300    1.2830    2.2830 c3        1 7CP      0.150100
      5 C1K         1.5320   -1.1110    2.2440 c3        1 7CP      0.160800
      6 C1M         0.0210   -1.3250    2.1570 c3        1 7CP     -0.129400
      7 C1Y        -0.4900   -1.3060    0.6990 c3        1 7CP      0.134400
      8 N1N        -0.0430   -2.4940   -0.0160 n         1 7CP     -0.548900
      9 C1O        -0.6060   -2.9160   -1.2090 c         1 7CP      0.731700
     10 O1D        -0.0290   -3.7710   -1.9100 o         1 7CP     -0.636500
     11 C1R        -1.9290   -2.3320   -1.5250 cc        1 7CP     -0.099300
     12 N1X        -2.6710   -2.4720   -2.7000 na        1 7CP     -0.007400
     13 C1B        -2.2980   -3.2510   -3.8410 c3        1 7CP      0.002600
     14 C1U        -3.8550   -1.7410   -2.5370 ca        1 7CP     -0.028200
     15 C1Q        -4.9530   -1.5320   -3.4020 ca        1 7CP      0.008400
     16 CL1F       -4.9940   -2.2260   -4.9470 cl        1 7CP     -0.065400
     17 C1P        -6.0030   -0.7370   -2.9470 ca        1 7CP      0.038400
     18 CL1E       -7.3540   -0.4460   -3.9340 cl        1 7CP     -0.066400
     19 C1H        -5.9890   -0.1480   -1.6630 ca        1 7CP     -0.140000
     20 C1I        -4.9240   -0.3390   -0.8060 ca        1 7CP     -0.072000
     21 C1T        -3.8480   -1.1290   -1.2210 ca        1 7CP     -0.079800
     22 C1S        -2.6130   -1.5210   -0.6050 cd        1 7CP     -0.118400
     23 C1V        -2.0570   -1.2080    0.7280 c3        1 7CP      0.071600
     24 C1G        -2.6200   -2.0890    1.7400 c1        1 7CP      0.214700
     25 N1C        -3.0910   -2.7850    2.5430 n1        1 7CP     -0.359800
     26 H1L        -0.4690    0.8700    0.5380 hc        1 7CP      0.062950
     27 H1LA       -0.2460    0.0180   -1.0440 hc        1 7CP      0.062950
     28 H1J         2.0470   -0.6910   -0.4050 h1        1 7CP      0.057700
     29 H1JA        1.8630    1.1120   -0.2690 h1        1 7CP      0.057700
     30 H1A         0.8640    1.5890    2.4690 h1        1 7CP      0.033700
     31 H1AA        2.4440    1.1640    3.2730 h1        1 7CP      0.033700
     32 H1AB        2.4410    2.1020    1.7120 h1        1 7CP      0.033700
     33 H1K         2.0630   -2.0120    1.8220 h1        1 7CP      0.057700
     34 H1KA        1.8160   -1.0360    3.3320 h1        1 7CP      0.057700
     35 H1M        -0.2310   -2.2990    2.6510 hc        1 7CP      0.062950
     36 H1MA       -0.5090   -0.5080    2.7120 hc        1 7CP      0.062950
     37 HN1N        0.8750   -2.8170    0.1940 hn        1 7CP      0.329500
     38 H1B        -3.0720   -4.0440   -4.0290 h1        1 7CP      0.074367
     39 H1BA       -2.2230   -2.5870   -4.7450 h1        1 7CP      0.074367
     40 H1BB       -1.3050   -3.7440   -3.6590 h1        1 7CP      0.074367
     41 H1H        -6.8460    0.4700   -1.3510 ha        1 7CP      0.154000
     42 H1I        -4.9150    0.1190    0.1950 ha        1 7CP      0.144000
     43 H1V        -2.3290   -0.1470    1.0140 hc        1 7CP      0.092700
@<TRIPOS>BOND
     1    1    2 1   
     2    1    7 1   
     3    1   26 1   
     4    1   27 1   
     5    2    3 1   
     6    2   28 1   
     7    2   29 1   
     8    3    4 1   
     9    3    5 1   
    10    4   30 1   
    11    4   31 1   
    12    4   32 1   
    13    5    6 1   
    14    5   33 1   
    15    5   34 1   
    16    6    7 1   
    17    6   35 1   
    18    6   36 1   
    19    7    8 1   
    20    7   23 1   
    21    8    9 1   
    22    8   37 1   
    23    9   10 2   
    24    9   11 1   
    25   11   12 1   
    26   11   22 2   
    27   12   13 1   
    28   12   14 1   
    29   13   38 1   
    30   13   39 1   
    31   13   40 1   
    32   14   15 ar  
    33   14   21 ar  
    34   15   16 1   
    35   15   17 ar  
    36   17   18 1   
    37   17   19 ar  
    38   19   20 ar  
    39   19   41 1   
    40   20   21 ar  
    41   20   42 1   
    42   21   22 1   
    43   22   23 1   
    44   23   24 1   
    45   23   43 1   
    46   24   25 3   
@<TRIPOS>SUBSTRUCTURE
     1 7CP         1 TEMP              0 ****  ****    0 ROOT
