@<TRIPOS>MOLECULE
7CP
   43    40     1     0     0
SMALL
bcc


@<TRIPOS>ATOM
      1 C1L         2.1470    0.3000   -0.2110 c3        1 7CP     -0.208000
      2 C1J         3.5040    0.8000    0.2800 c3        1 7CP     -0.076000
      3 N1W         3.4700    1.3000    1.8000 n3        1 7CP     -0.248000
      4 C1A         2.3990    2.2350    1.9720 c3        1 7CP     -0.126000
      5 C1K         3.0540   -0.1130    2.4280 c3        1 7CP     -0.076000
      6 C1M         1.7010   -0.6090    1.9290 c3        1 7CP     -0.208000
      7 C1Y         1.3560   -0.0060    0.8020 c3        1 7CP      0.097000
      8 N1N         1.5180   -1.2850    0.3110 n         1 7CP     -0.358000
      9 C1O         0.9180   -1.6000   -0.8550 c2        1 7CP      0.370000
     10 O1D         1.3030   -2.5630   -1.5000 o         1 7CP     -0.361000
     11 C1R        -0.4920   -0.9760   -1.1430 c2        1 7CP     -0.053000
     12 N1X        -1.4760   -1.2420   -2.0580 n2        1 7CP     -0.099000
     13 C1B        -1.5250   -2.1740   -3.1460 c2        1 7CP     -0.096000
     14 C1U        -2.6090   -0.4460   -1.7320 c1        1 7CP      0.017000
     15 C1Q        -3.8680   -0.3170   -2.3360 c1        1 7CP     -0.070000
     16 CL1F       -4.8390   -0.9630   -3.6360 cl        1 7CP      0.013000
     17 C1P        -4.8100    0.5690   -1.8050 c1        1 7CP     -0.040000
     18 CL1E       -6.3700    0.7090   -2.5800 cl        1 7CP      0.012000
     19 C1H        -4.4970    1.3300   -0.6680 c2        1 7CP     -0.140000
     20 C1I        -3.2430    1.2030   -0.0660 c1        1 7CP     -0.072000
     21 C1T        -2.2960    0.3140   -0.5960 c1        1 7CP     -0.068000
     22 C1S        -1.0000    0.0040   -0.2180 c1        1 7CP     -0.126000
     23 C1V        -0.0240    0.5160    0.9520 c2        1 7CP      0.055000
     24 C1G        -0.6110    0.1950    2.3750 c1        1 7CP     -0.138000
     25 N1C        -1.0400   -0.0390    3.4130 n1        1 7CP     -0.034000
     26 H1L         1.7210    1.0030   -0.7520 hc        1 7CP      0.102250
     27 H1LA        2.2810   -0.4990   -0.7680 hc        1 7CP      0.102250
     28 H1J         4.1590    0.0680    0.2010 h1        1 7CP      0.097000
     29 H1JA        3.7920    1.5470   -0.2930 h1        1 7CP      0.097000
     30 H1A         1.5620    1.7500    2.1000 h1        1 7CP      0.073000
     31 H1AA        2.5770    2.7980    2.7630 h1        1 7CP      0.073000
     32 H1AB        2.3290    2.8040    1.1740 h1        1 7CP      0.073000
     33 H1K         3.7420   -0.7790    2.1940 h1        1 7CP      0.097000
     34 H1KA        3.0180   -0.0260    3.4090 h1        1 7CP      0.097000
     35 H1M         1.7510   -1.5790    1.7730 hc        1 7CP      0.102250
     36 H1MA        1.0190   -0.4270    2.6140 hc        1 7CP      0.102250
     37 HN1N        2.1830   -1.8270    0.6480 hn        1 7CP      0.243000
     38 H1B        -2.0800   -2.9460   -2.8910 ha        1 7CP      0.113667
     39 H1BA       -1.9140   -1.7370   -3.9350 ha        1 7CP      0.113667
     40 H1BB       -0.6160   -2.4800   -3.3560 ha        1 7CP      0.113667
     41 H1H        -5.1590    1.9520   -0.2970 ha        1 7CP      0.154000
     42 H1I        -3.0250    1.7350    0.7280 ha        1 7CP      0.144000
     43 H1V        -0.0120    1.4980    0.9750 ha        1 7CP      0.132000
@<TRIPOS>BOND
     1    1    2 1   
     2    1    7 1   
     3    1   26 1   
     4    1   27 1   
     5    2    3 1   
     6    2   28 1   
     7    2   29 1   
     8    3    4 1   
     9    3    5 1   
    10    4   30 1   
    11    4   31 1   
    12    4   32 1   
    13    5    6 1   
    14    5   33 1   
    15    5   34 1   
    16    6    7 1   
    17    6   35 1   
    18    6   36 1   
    19    7    8 1   
    20    7   23 1   
    21    8    9 1   
    22    8   37 1   
    23    9   10 1   
    24    9   11 1   
    25   11   12 1   
    26   11   22 1   
    27   12   14 1   
    28   13   38 1   
    29   13   39 1   
    30   13   40 1   
    31   14   21 1   
    32   15   16 1   
    33   15   17 1   
    34   17   19 1   
    35   19   20 1   
    36   19   41 1   
    37   20   42 1   
    38   23   24 1   
    39   23   43 1   
    40   24   25 1   
@<TRIPOS>SUBSTRUCTURE
     1 7CP         1 TEMP              0 ****  ****    0 ROOT
