@<TRIPOS>MOLECULE
7CS
   40    43     1     0     0
SMALL
bcc


@<TRIPOS>ATOM
      1 C12        -1.6550   -0.0220   -0.3150 cc        1 7CS     -0.198400
      2 O4         -0.5050   -2.1050    0.0980 o         1 7CS     -0.555000
      3 C9         -0.5180   -0.9110   -0.2230 c         1 7CS      0.680300
      4 C11        -1.6370    1.3330   -0.6730 cd        1 7CS     -0.017100
      5 O3          0.6690   -0.3050   -0.5450 os        1 7CS     -0.456900
      6 C7          2.6730    1.2960    1.1840 c3        1 7CS     -0.105900
      7 C6          2.9260    1.7260   -0.2620 c3        1 7CS     -0.105900
      8 N1          4.4580   -0.0910    0.2780 n3        1 7CS     -0.693600
      9 C5          3.7690    0.5640   -0.8600 c3        1 7CS      0.155500
     10 C4          2.8280   -0.4650   -1.5030 c3        1 7CS     -0.073400
     11 C1          3.3780   -0.0840    1.2970 c3        1 7CS      0.155500
     12 C2          2.3820   -1.1960    0.9400 c3        1 7CS     -0.073400
     13 C3          1.8700   -1.1130   -0.4990 c3        1 7CS      0.162100
     14 C13        -5.7530   -0.2360    0.2500 ca        1 7CS      0.410200
     15 N14        -5.1670    0.9080   -0.1230 nb        1 7CS     -0.665000
     16 C15        -3.8120    0.8300   -0.2710 ca        1 7CS      0.408800
     17 C16        -3.0290   -0.3770   -0.0510 ca        1 7CS     -0.155100
     18 C17        -3.7030   -1.5380    0.3380 ca        1 7CS     -0.042000
     19 C18        -5.0800   -1.4620    0.4890 ca        1 7CS     -0.264300
     20 N10        -2.9200    1.8560   -0.6510 na        1 7CS     -0.279100
     21 H81         5.4970    1.6610    0.9930 h1        1 7CS      0.032700
     22 H82         6.0880    0.0390    1.5790 h1        1 7CS      0.032700
     23 H83         6.4000    0.5560   -0.1420 h1        1 7CS      0.032700
     24 H11        -0.7710    1.9470   -0.9410 h4        1 7CS      0.186000
     25 H71         3.1150    2.0210    1.9080 hc        1 7CS      0.048700
     26 H72         1.5820    1.2010    1.3960 hc        1 7CS      0.048700
     27 H61         1.9690    1.8490   -0.8220 hc        1 7CS      0.048700
     28 H62         3.4940    2.6860   -0.3080 hc        1 7CS      0.048700
     29 H5          4.5060    0.9340   -1.6180 h1        1 7CS      0.064200
     30 H41         2.2370    0.0420   -2.3080 hc        1 7CS      0.059950
     31 H42         3.4370   -1.2800   -1.9740 hc        1 7CS      0.059950
     32 H1          3.7920   -0.2550    2.3230 h1        1 7CS      0.064200
     33 H21         2.8800   -2.1920    1.0770 hc        1 7CS      0.059950
     34 H22         1.5100   -1.1470    1.6420 hc        1 7CS      0.059950
     35 H3          1.6070   -2.1510   -0.8510 h1        1 7CS      0.070700
     36 H13        -6.8510   -0.1770    0.3710 h4        1 7CS      0.024100
     37 H17        -3.1400   -2.4680    0.5120 ha        1 7CS      0.166000
     38 H18        -5.6620   -2.3430    0.7920 ha        1 7CS      0.146000
     39 HN10       -3.1810    2.7840   -0.8630 hn        1 7CS      0.315700
     40 C8          5.6590    0.5880    0.7000 c3        1 7CS      0.144100
@<TRIPOS>BOND
     1    1    3 1   
     2    1    4 2   
     3    1   17 1   
     4    2    3 2   
     5    3    5 1   
     6    4   20 1   
     7    4   24 1   
     8    5   13 1   
     9    6    7 1   
    10    6   11 1   
    11    6   25 1   
    12    6   26 1   
    13    7    9 1   
    14    7   27 1   
    15    7   28 1   
    16    8    9 1   
    17    8   11 1   
    18    8   40 1   
    19    9   10 1   
    20    9   29 1   
    21   10   13 1   
    22   10   30 1   
    23   10   31 1   
    24   11   12 1   
    25   11   32 1   
    26   12   13 1   
    27   12   33 1   
    28   12   34 1   
    29   13   35 1   
    30   14   15 ar  
    31   14   19 ar  
    32   14   36 1   
    33   15   16 ar  
    34   16   17 ar  
    35   16   20 1   
    36   17   18 ar  
    37   18   19 ar  
    38   18   37 1   
    39   19   38 1   
    40   20   39 1   
    41   21   40 1   
    42   22   40 1   
    43   23   40 1   
@<TRIPOS>SUBSTRUCTURE
     1 7CS         1 TEMP              0 ****  ****    0 ROOT
