@<TRIPOS>MOLECULE
7CS
   40    36     1     0     0
SMALL
bcc


@<TRIPOS>ATOM
      1 C12        -0.3430    1.2250    2.5350 c1        1 7CS     -0.191000
      2 O4         -2.1920    0.9010    1.1660 o         1 7CS     -0.366000
      3 C8         -0.2040   -2.6850   -4.2480 c3        1 7CS     -0.132000
      4 C9         -1.0740    0.5940    1.3890 c1        1 7CS      0.382000
      5 C11        -0.2320    0.3480    3.6320 c1        1 7CS      0.010000
      6 O3         -0.3870   -0.2510    0.4940 os        1 7CS     -0.295000
      7 C7          0.6140   -2.9600   -1.7650 c3        1 7CS     -0.184500
      8 C6          1.3980   -1.6540   -2.3780 c3        1 7CS     -0.184500
      9 N1         -0.6420   -1.8690   -3.1370 n3        1 7CS     -0.219000
     10 C5          0.2520   -0.8620   -2.9270 c3        1 7CS     -0.042000
     11 C4         -0.1260    0.1440   -1.8520 c3        1 7CS     -0.152000
     12 C1         -0.8320   -2.6250   -2.1040 c3        1 7CS     -0.042000
     13 C2         -1.4160   -1.9330   -0.8610 c3        1 7CS     -0.152000
     14 C3         -1.0390   -0.4220   -0.7140 c3        1 7CS      0.051000
     15 C13         1.2640    4.6560    4.2180 c1        1 7CS     -0.127000
     16 N14         1.1430    3.4430    4.8870 n1        1 7CS     -0.139000
     17 C15         0.5980    2.3420    4.2410 c1        1 7CS      0.017000
     18 C16         0.1690    2.4510    2.9160 c1        1 7CS     -0.078000
     19 C17         0.2910    3.6730    2.2400 c1        1 7CS     -0.042000
     20 C18         0.8340    4.7680    2.8870 c1        1 7CS     -0.127000
     21 N10         0.3460    1.0390    4.6740 n1        1 7CS     -0.193000
     22 H81         0.7250   -2.4640   -4.4700 h1        1 7CS      0.072000
     23 H82        -0.7940   -2.5100   -5.0470 h1        1 7CS      0.072000
     24 H83        -0.2640   -3.6530   -3.9950 h1        1 7CS      0.072000
     25 H11        -0.5790   -0.5820    3.6720 DU        1 7CS      0.226000
     26 H71         0.7390   -3.0230   -0.8190 hc        1 7CS      0.088000
     27 H72         0.9040   -3.7980   -2.2240 hc        1 7CS      0.088000
     28 H61         1.8660   -1.1540   -1.6670 hc        1 7CS      0.088000
     29 H62         2.0210   -1.9200   -3.0970 hc        1 7CS      0.088000
     30 H5          0.5140   -0.3890   -3.8240 h1        1 7CS      0.103500
     31 H41         0.7070    0.4890   -1.4400 hc        1 7CS      0.099250
     32 H42        -0.6040    0.9080   -2.2890 hc        1 7CS      0.099250
     33 H1         -1.3580   -3.4640   -2.3490 h1        1 7CS      0.103500
     34 H21        -1.1050   -2.4040   -0.0740 hc        1 7CS      0.099250
     35 H22        -2.4330   -2.0070   -0.9010 hc        1 7CS      0.099250
     36 H3         -1.8690    0.1030   -0.6940 h1        1 7CS      0.110000
     37 H13         1.6630    5.4600    4.6940 ha        1 7CS      0.153500
     38 H17        -0.0110    3.7510    1.3070 ha        1 7CS      0.166000
     39 H18         0.9210    5.6310    2.4120 ha        1 7CS      0.153500
     40 HN10        0.5330    0.7010    5.5140 DU        1 7CS      0.226000
@<TRIPOS>BOND
     1    1    5 1   
     2    1   18 1   
     3    2    4 1   
     4    3    9 1   
     5    3   22 1   
     6    3   23 1   
     7    3   24 1   
     8    4    6 1   
     9    5   21 1   
    10    6   14 1   
    11    7    8 1   
    12    7   12 1   
    13    7   26 1   
    14    7   27 1   
    15    8   10 1   
    16    8   28 1   
    17    8   29 1   
    18    9   10 1   
    19    9   12 1   
    20   10   11 1   
    21   10   30 1   
    22   11   14 1   
    23   11   31 1   
    24   11   32 1   
    25   12   13 1   
    26   12   33 1   
    27   13   14 1   
    28   13   34 1   
    29   13   35 1   
    30   14   36 1   
    31   15   20 1   
    32   15   37 1   
    33   16   17 1   
    34   18   19 1   
    35   19   38 1   
    36   20   39 1   
@<TRIPOS>SUBSTRUCTURE
     1 7CS         1 TEMP              0 ****  ****    0 ROOT
