@<TRIPOS>MOLECULE
7CS
   40    38     1     0     0
SMALL
bcc


@<TRIPOS>ATOM
      1 C12         1.0200   -0.9990    0.9220 c2        1 7CS     -0.189000
      2 O4          0.1320   -2.2830   -0.9410 o         1 7CS     -0.301000
      3 C9          0.9930   -1.5580   -0.4410 c2        1 7CS      0.365000
      4 C11         2.1720   -0.9610    1.5910 c1        1 7CS      0.063000
      5 O3          2.0180   -1.2740   -1.3020 oh        1 7CS     -0.290000
      6 C7          0.3050   -1.6080   -4.3810 c3        1 7CS     -0.196000
      7 C6          0.6590   -0.2030   -4.8250 c3        1 7CS     -0.141000
      8 N1         -1.7170   -1.6680   -5.8990 n8        1 7CS     -0.330000
      9 C5          0.8510   -0.0840   -6.2930 c2        1 7CS     -0.167000
     10 C4         -2.5890    1.0860   -3.4970 c1        1 7CS     -0.244000
     11 C1         -1.1670   -1.9980   -4.5980 c3        1 7CS     -0.023000
     12 C2         -2.0510   -1.4880   -3.4420 c3        1 7CS     -0.068000
     13 C3         -2.3320   -0.0840   -3.4820 c1        1 7CS     -0.150000
     14 C13        -1.0900    2.0260    2.8740 c2        1 7CS     -0.439000
     15 N14        -0.4930    0.9530    3.5430 n2        1 7CS     -0.082000
     16 C15        -0.1200   -0.1200    2.9410 c2        1 7CS     -0.054000
     17 C16        -0.2180   -0.5110    1.5210 c2        1 7CS     -0.075000
     18 C17        -1.3810   -0.4410    0.8570 c2        1 7CS     -0.168000
     19 C18        -1.5860    3.1420    3.4000 c1        1 7CS      0.260000
     20 N10         3.2580   -0.7590    2.1180 n2        1 7CS     -0.161000
     21 H81         2.0270   -0.4560   -8.0310 ha        1 7CS      0.111500
     22 H82         2.7150   -1.1130   -6.4420 ha        1 7CS      0.111500
     23 H83        -1.0470   -1.8900   -6.6130 hn        1 7CS      0.142000
     24 H11         3.7080   -1.4060    2.7280 hn        1 7CS      0.231000
     25 H71         0.5450   -1.7180   -3.2870 hc        1 7CS      0.096500
     26 H72         0.9520   -2.3380   -4.9370 hc        1 7CS      0.096500
     27 H61         2.6370   -0.6490   -0.8990 ho        1 7CS      0.232000
     28 H62         1.6090    0.1020   -4.3060 hc        1 7CS      0.089500
     29 H5         -0.1430    0.5090   -4.4890 hc        1 7CS      0.089500
     30 H41         0.0580    0.4610   -6.8320 ha        1 7CS      0.115000
     31 H42        -2.8200    2.1190   -3.5140 ha        1 7CS      0.219000
     32 H1         -1.9190   -0.6870   -5.9530 hn        1 7CS      0.142000
     33 H21        -1.2030   -3.1310   -4.5280 h1        1 7CS      0.099000
     34 H22        -3.0280   -2.0490   -3.4680 hc        1 7CS      0.115500
     35 H3         -1.5360   -1.7430   -2.4720 hc        1 7CS      0.115500
     36 H13        -1.1710    1.9940    1.7540 h4        1 7CS      0.178000
     37 H17        -2.3000   -0.0800    1.3400 ha        1 7CS      0.138500
     38 H18        -1.4920   -0.7660   -0.1880 ha        1 7CS      0.138500
     39 HN10        0.3450   -0.8860    3.6000 h4        1 7CS      0.154000
     40 C8          1.9050   -0.5700   -6.9460 c2        1 7CS     -0.224000
@<TRIPOS>BOND
     1    1    3 1   
     2    1    4 1   
     3    1   17 1   
     4    2    3 1   
     5    3    5 1   
     6    4   20 1   
     7    5   27 1   
     8    6    7 1   
     9    6   11 1   
    10    6   25 1   
    11    6   26 1   
    12    7    9 1   
    13    7   28 1   
    14    7   29 1   
    15    8   11 1   
    16    8   23 1   
    17    8   32 1   
    18    9   30 1   
    19    9   40 1   
    20   10   13 1   
    21   10   31 1   
    22   11   12 1   
    23   11   33 1   
    24   12   13 1   
    25   12   34 1   
    26   12   35 1   
    27   14   15 1   
    28   14   19 1   
    29   14   36 1   
    30   15   16 1   
    31   16   17 1   
    32   16   39 1   
    33   17   18 1   
    34   18   37 1   
    35   18   38 1   
    36   20   24 1   
    37   21   40 1   
    38   22   40 1   
@<TRIPOS>SUBSTRUCTURE
     1 7CS         1 TEMP              0 ****  ****    0 ROOT
