@<TRIPOS>MOLECULE
7CS
   40    38     1     0     0
SMALL
bcc


@<TRIPOS>ATOM
      1 C12        -0.4310    0.1330    0.6110 c2        1 7CS     -0.179000
      2 O4         -2.3650   -0.0450   -0.8620 o         1 7CS     -0.338000
      3 C9         -1.1520   -0.0670   -0.6510 c2        1 7CS      0.377000
      4 C11         0.8910    0.3280    0.5890 c1        1 7CS      0.133000
      5 O3         -0.2930   -0.3200   -1.7000 os        1 7CS     -0.257000
      6 C7          2.1270   -2.5310   -5.2600 c2        1 7CS     -0.192000
      7 C6          3.0700   -1.6080   -5.4220 c2        1 7CS     -0.218000
      8 N1          0.1360   -1.0970   -5.8990 n3        1 7CS     -0.248000
      9 C5          0.2810    0.1080   -5.1930 c2        1 7CS     -0.022000
     10 C4         -0.1230    0.3940   -3.9370 c2        1 7CS     -0.199000
     11 C1          0.6480   -2.3080   -5.2850 c3        1 7CS     -0.032000
     12 C2         -1.7850   -1.3560   -3.2680 c2        1 7CS     -0.228000
     13 C3         -0.8090   -0.4770   -3.0000 c2        1 7CS      0.069000
     14 C13        -0.8020    1.3060    4.6100 c2        1 7CS     -0.435000
     15 N14        -0.2430    0.0880    4.2100 n2        1 7CS     -0.091000
     16 C15        -0.4060   -0.3940    3.0290 c2        1 7CS     -0.052000
     17 C16        -1.1640    0.1230    1.8730 c2        1 7CS     -0.076000
     18 C17        -2.4390    0.5210    1.9900 c2        1 7CS     -0.168000
     19 C18        -0.7970    1.8490    5.8230 c1        1 7CS      0.249000
     20 N10         2.0490    0.7100    0.5400 n2        1 7CS     -0.176000
     21 H81        -0.1830   -0.1260   -7.7360 h1        1 7CS      0.077667
     22 H82         0.0140   -1.9370   -7.8120 h1        1 7CS      0.077667
     23 H83         1.4750   -0.8730   -7.5640 h1        1 7CS      0.077667
     24 H11         2.8500    0.1210    0.5690 hn        1 7CS      0.238000
     25 H71         0.3950   -3.3200   -1.7850 ha        1 7CS      0.000000
     26 H72         0.0050   -2.7930   -1.9600 ha        1 7CS      0.000000
     27 H61         2.3970   -3.5830   -5.0610 ha        1 7CS      0.124000
     28 H62         2.8500   -0.5480   -5.6090 ha        1 7CS      0.112500
     29 H5          4.1390   -1.8530   -5.3730 ha        1 7CS      0.112500
     30 H41         0.7120    0.9430   -5.7900 h4        1 7CS      0.122000
     31 H42         0.0760    1.4080   -3.5480 ha        1 7CS      0.143000
     32 H1          0.2800   -2.3410   -4.2150 h1        1 7CS      0.108500
     33 H21         0.1740   -3.1730   -5.8370 h1        1 7CS      0.108500
     34 H22        -2.1400   -1.5150   -4.2930 ha        1 7CS      0.138000
     35 H3         -2.2920   -1.9240   -2.4780 ha        1 7CS      0.138000
     36 H13        -1.3130    1.9480    3.8420 h4        1 7CS      0.180000
     37 H17        -2.9700    0.4830    2.9510 ha        1 7CS      0.138000
     38 H18        -3.0290    0.8700    1.1300 ha        1 7CS      0.138000
     39 HN10        0.1050   -1.3660    2.8480 h4        1 7CS      0.156000
     40 C8          0.3840   -0.9990   -7.3200 c3        1 7CS     -0.106000
@<TRIPOS>BOND
     1    1    3 1   
     2    1    4 1   
     3    1   17 1   
     4    2    3 1   
     5    3    5 1   
     6    4   20 1   
     7    5   13 1   
     8    6    7 1   
     9    6   11 1   
    10    6   27 1   
    11    7   28 1   
    12    7   29 1   
    13    8    9 1   
    14    8   11 1   
    15    8   40 1   
    16    9   10 1   
    17    9   30 1   
    18   10   13 1   
    19   10   31 1   
    20   11   32 1   
    21   11   33 1   
    22   12   13 1   
    23   12   34 1   
    24   12   35 1   
    25   14   15 1   
    26   14   19 1   
    27   14   36 1   
    28   15   16 1   
    29   16   17 1   
    30   16   39 1   
    31   17   18 1   
    32   18   37 1   
    33   18   38 1   
    34   20   24 1   
    35   21   40 1   
    36   22   40 1   
    37   23   40 1   
    38   25   26 1   
@<TRIPOS>SUBSTRUCTURE
     1 7CS         1 TEMP              0 ****  ****    0 ROOT
