@<TRIPOS>MOLECULE
7DA
   35    29     1     0     0
SMALL
bcc


@<TRIPOS>ATOM
      1 P           2.2920    5.3340   -1.2030 p3        1 7DA      2.523000
      2 OP1         3.7410    5.5440   -1.5830 o         1 7DA     -1.250500
      3 OP2         2.1450    5.4330    0.2990 os        1 7DA     -1.249000
      4 O5'         1.8170    3.8860   -1.6920 os        1 7DA     -0.717000
      5 N9         -0.0110   -1.2080    0.2950 n2        1 7DA     -0.142000
      6 C4         -0.7780   -2.3140    0.6690 c1        1 7DA      0.053000
      7 N3         -1.7700   -2.9940    0.0250 n1        1 7DA     -0.191000
      8 C2         -2.2950   -4.1200    0.5810 c1        1 7DA     -0.030000
      9 N1         -1.8290   -4.5720    1.7880 n1        1 7DA     -0.276000
     10 C6         -0.8530   -3.9050    2.4240 c1        1 7DA      0.145000
     11 N6         -0.6420   -4.7120    3.5900 n2        1 7DA     -0.320000
     12 C5         -0.3170   -2.7610    1.8620 c1        1 7DA     -0.204000
     13 C7          0.7380   -1.9440    2.2450 c1        1 7DA     -0.230000
     14 C8          0.9140   -0.9900    1.2660 c1        1 7DA     -0.020000
     15 C2'        -1.1050    0.1450   -1.1360 c3        1 7DA     -0.209000
     16 C5'         0.9610    3.1310   -0.8440 c3        1 7DA      0.076000
     17 C4'         0.7270    1.7200   -1.4650 c3        1 7DA     -0.058000
     18 O4'         1.0640    0.8250   -0.6520 os        1 7DA     -0.291000
     19 C1'         0.0610   -0.3860   -0.8880 c2        1 7DA      0.156000
     20 C3'        -0.8020    1.4850   -1.7230 c3        1 7DA      0.044000
     21 O3'        -1.0610    1.4850   -3.0640 oh        1 7DA     -0.398000
     22 OP3         1.4390    6.3930   -1.8630 o         1 7DA     -1.250500
     23 H2         -3.0070   -4.6070    0.1170 ha        1 7DA      0.162000
     24 HN61       -1.2560   -5.3540    3.8210 hn        1 7DA      0.187000
     25 HN62        0.1010   -4.5810    4.1080 hn        1 7DA      0.187000
     26 H7          1.3050   -2.0700    3.0350 DU        1 7DA      0.188500
     27 H8          1.6040   -0.2990    1.2570 DU        1 7DA      0.188500
     28 H2'        -1.6020   -0.4050   -1.7810 hc        1 7DA      0.092500
     29 H2''       -1.6180    0.2450   -0.3060 hc        1 7DA      0.092500
     30 H5'         1.3780    3.0340    0.0390 h1        1 7DA      0.036000
     31 H5''        0.0990    3.5950   -0.7510 h1        1 7DA      0.036000
     32 H4'         1.2320    1.6280   -2.3020 h1        1 7DA      0.116000
     33 H1'         0.3540   -0.9200   -1.6510 h4        1 7DA      0.114000
     34 H1         -1.3310    2.1780   -1.2750 h1        1 7DA      0.140000
     35 HO3'       -1.6980    2.0860   -3.2440 ho        1 7DA      0.300000
@<TRIPOS>BOND
     1    1    2 1   
     2    1    4 1   
     3    1   22 1   
     4    4   16 1   
     5    5    6 1   
     6    5   14 1   
     7    6   12 1   
     8    7    8 1   
     9    8   23 1   
    10    9   10 1   
    11   10   12 1   
    12   11   24 1   
    13   11   25 1   
    14   13   14 1   
    15   15   19 1   
    16   15   20 1   
    17   15   28 1   
    18   15   29 1   
    19   16   17 1   
    20   16   30 1   
    21   16   31 1   
    22   17   18 1   
    23   17   20 1   
    24   17   32 1   
    25   18   19 1   
    26   19   33 1   
    27   20   21 1   
    28   20   34 1   
    29   21   35 1   
@<TRIPOS>SUBSTRUCTURE
     1 7DA         1 TEMP              0 ****  ****    0 ROOT
