@<TRIPOS>MOLECULE
7DA
   35    37     1     0     0
SMALL
bcc


@<TRIPOS>ATOM
      1 P           1.8910   -2.2820   -4.5770 p5        1 7DA      1.430800
      2 OP1         2.7220   -3.2410   -5.3270 o         1 7DA     -0.844000
      3 OP2         1.3510   -1.1000   -5.5720 oh        1 7DA     -0.787400
      4 O5'         2.8800   -1.3760   -3.6170 os        1 7DA     -0.581200
      5 N9          1.2740    1.9880    0.3900 nh        1 7DA     -0.204200
      6 C4          1.8920    3.0270    1.1240 ca        1 7DA      0.377800
      7 N3          2.9430    3.0130    1.9810 nb        1 7DA     -0.714000
      8 C2          3.2040    4.2190    2.5470 ca        1 7DA      0.546900
      9 N1          2.5730    5.4110    2.3820 nb        1 7DA     -0.771000
     10 C6          1.5210    5.4290    1.5050 ca        1 7DA      0.536200
     11 N6          0.8550    6.6570    1.2170 nh        1 7DA     -0.891500
     12 C5          1.1110    4.2480    0.8360 ca        1 7DA     -0.255400
     13 C7          0.0720    3.8700   -0.0540 ce        1 7DA     -0.460300
     14 C8          0.1800    2.4760   -0.3260 c1        1 7DA     -0.094900
     15 C2'         0.6320   -0.4250    0.1360 c3        1 7DA     -0.144400
     16 C5'         2.2770   -0.4400   -2.7760 c3        1 7DA      0.185400
     17 C4'         2.5370   -0.8050   -1.3060 c3        1 7DA      0.089100
     18 O4'         2.7950    0.3850   -0.5470 os        1 7DA     -0.440600
     19 C1'         1.7300    0.6270    0.4140 c3        1 7DA      0.268800
     20 C3'         1.3480   -1.5300   -0.6440 c3        1 7DA      0.100100
     21 O3'         1.7890   -2.5610    0.2270 oh        1 7DA     -0.610800
     22 OP3         0.6810   -2.5910   -3.7790 o         1 7DA     -0.844000
     23 H2          4.0580    4.2370    3.2500 h5        1 7DA      0.002100
     24 HN61        0.8110    7.2600    2.0140 hn        1 7DA      0.352300
     25 HN62       -0.0670    6.4620    0.8780 hn        1 7DA      0.352300
     26 H7         -0.6710    4.5320   -0.4800 ha        1 7DA      0.110000
     27 H8          0.5280   -0.7340   -5.2690 ho        1 7DA      0.423000
     28 H2'        -0.1900    0.0180   -0.4840 hc        1 7DA      0.076700
     29 H2''        0.2070   -0.8070    1.0930 hc        1 7DA      0.076700
     30 H5'         2.7450    0.5660   -2.9730 h1        1 7DA      0.039700
     31 H5''        1.1710   -0.3860   -2.9760 h1        1 7DA      0.039700
     32 H4'         3.4750   -1.4190   -1.2360 h1        1 7DA      0.065700
     33 H1'         2.2150    0.4340    1.4200 h2        1 7DA      0.040700
     34 H1          0.6920   -2.0510   -1.3970 h1        1 7DA      0.145700
     35 HO3'        2.4340   -2.1630    0.8230 ho        1 7DA      0.381000
@<TRIPOS>BOND
     1    1    2 1   
     2    1    3 1   
     3    1    4 1   
     4    1   22 1   
     5    3   27 1   
     6    4   16 1   
     7    5    6 1   
     8    5   14 2   
     9    5   19 1   
    10    6    7 ar  
    11    6   12 ar  
    12    7    8 ar  
    13    8    9 ar  
    14    8   23 1   
    15    9   10 ar  
    16   10   11 1   
    17   10   12 ar  
    18   11   24 1   
    19   11   25 1   
    20   12   13 1   
    21   13   14 2   
    22   13   26 1   
    23   15   19 1   
    24   15   20 1   
    25   15   28 1   
    26   15   29 1   
    27   16   17 1   
    28   16   30 1   
    29   16   31 1   
    30   17   18 1   
    31   17   20 1   
    32   17   32 1   
    33   18   19 1   
    34   19   33 1   
    35   20   21 1   
    36   20   34 1   
    37   21   35 1   
@<TRIPOS>SUBSTRUCTURE
     1 7DA         1 TEMP              0 ****  ****    0 ROOT
