@<TRIPOS>MOLECULE
7DE
   36    30     1     0     0
SMALL
bcc


@<TRIPOS>ATOM
      1 O21        -6.2350   -2.5960    1.1330 o         1 7DE     -0.295700
      2 N19        -5.0170   -2.6010    1.1370 n2        1 7DE      0.514700
      3 O20        -4.3350   -3.5270    1.8930 os        1 7DE     -0.354000
      4 C12        -4.2900   -1.6320    0.3520 c2        1 7DE     -0.120000
      5 C13        -4.9750   -0.7140   -0.4140 c2        1 7DE     -0.069000
      6 C11        -2.9140   -1.6190    0.3750 c1        1 7DE     -0.087000
      7 C3         -2.2200   -0.6880   -0.3680 c1        1 7DE      0.064000
      8 C2         -2.8970    0.2200   -1.1250 c1        1 7DE     -0.075000
      9 C1         -4.2910    0.2070   -1.1480 c1        1 7DE     -0.130000
     10 N4         -0.8550   -0.7070   -0.3790 n2        1 7DE     -0.089500
     11 C5         -0.0520    0.0800    0.3400 c1        1 7DE      0.010000
     12 C6         -0.4940    1.0080    1.4990 c2        1 7DE     -0.172500
     13 C7          1.2820   -0.2030   -0.0350 c1        1 7DE     -0.240000
     14 C8          1.2500   -1.1500   -0.9670 c1        1 7DE      0.010000
     15 N10        -0.0720   -1.4790   -1.1970 n2        1 7DE     -0.089500
     16 C9          2.4740   -1.7470   -1.7060 c2        1 7DE     -0.172500
     17 C14         2.5580    0.4130    0.5940 c1        1 7DE      0.388000
     18 O18         3.0090   -0.0470    1.5860 o         1 7DE     -0.374000
     19 O15         3.2470    1.4660   -0.0850 os        1 7DE     -0.276000
     20 C16         4.2650    2.1080    0.6930 c3        1 7DE     -0.011000
     21 C17         5.1250    2.9620   -0.2190 c3        1 7DE     -0.244000
     22 H13        -5.9140   -0.7230   -0.4290 ha        1 7DE      0.177000
     23 H11        -2.4480   -2.2450    0.8940 ha        1 7DE      0.183000
     24 H2         -2.4180    0.8630   -1.6390 ha        1 7DE      0.170000
     25 H1         -4.7710    0.8490   -1.6850 ha        1 7DE      0.157000
     26 H61        -0.5200    0.4920    2.3450 ha        1 7DE      0.109500
     27 H62        -1.4200    1.3810    1.3010 ha        1 7DE      0.109500
     28 H63         0.1270    1.7240    1.5840 ha        1 7DE      0.109500
     29 H91         2.1740   -2.4800   -2.2990 ha        1 7DE      0.109500
     30 H92         2.9030   -1.0510   -2.2430 ha        1 7DE      0.109500
     31 H93         3.1120   -2.0980   -1.0530 ha        1 7DE      0.109500
     32 H161        3.8430    2.6830    1.3860 h1        1 7DE      0.102000
     33 H162        4.8250    1.4270    1.1280 h1        1 7DE      0.102000
     34 H171        5.6930    3.5520    0.3240 hc        1 7DE      0.088333
     35 H172        5.6980    2.3730   -0.7820 hc        1 7DE      0.088333
     36 H173        4.5540    3.5000   -0.7920 hc        1 7DE      0.088333
@<TRIPOS>BOND
     1    1    2 2   
     2    2    4 1   
     3    4    5 1   
     4    4    6 1   
     5    5    9 1   
     6    5   22 1   
     7    6   23 1   
     8    7    8 1   
     9    8   24 1   
    10    9   25 1   
    11   10   11 1   
    12   10   15 1   
    13   11   13 1   
    14   12   26 1   
    15   12   27 1   
    16   12   28 1   
    17   13   14 1   
    18   14   15 1   
    19   16   29 1   
    20   16   30 1   
    21   16   31 1   
    22   17   18 1   
    23   17   19 1   
    24   19   20 1   
    25   20   21 1   
    26   20   32 1   
    27   20   33 1   
    28   21   34 1   
    29   21   35 1   
    30   21   36 1   
@<TRIPOS>SUBSTRUCTURE
     1 7DE         1 TEMP              0 ****  ****    0 ROOT
