@<TRIPOS>MOLECULE
7DE
   36    37     1     0     0
SMALL
bcc


@<TRIPOS>ATOM
      1 O21         0.0570   -0.4590   -0.1150 o         1 7DE     -0.200000
      2 N19         1.2580   -0.4460   -0.0770 no        1 7DE      0.313200
      3 O20         1.8710   -0.6360    0.9370 o         1 7DE     -0.200000
      4 C12         2.0090   -0.1870   -1.3380 ca        1 7DE     -0.167200
      5 C13         1.2990    0.0020   -2.5330 ca        1 7DE     -0.069000
      6 C11         3.4100   -0.1410   -1.3010 ca        1 7DE     -0.055000
      7 C3          4.1120    0.1000   -2.4980 ca        1 7DE      0.014800
      8 C2          3.4020    0.3040   -3.6990 ca        1 7DE     -0.102000
      9 C1          2.0110    0.2450   -3.7050 ca        1 7DE     -0.129000
     10 N4          5.5350    0.1570   -2.4860 na        1 7DE      0.144300
     11 C5          6.3890   -0.4310   -3.4360 cc        1 7DE      0.011400
     12 C6          5.9600   -1.2090   -4.6100 c3        1 7DE     -0.054800
     13 C7          7.7000   -0.1280   -3.0110 cd        1 7DE     -0.320900
     14 C8          7.5430    0.6450   -1.7830 cd        1 7DE      0.393600
     15 N10         6.2220    0.7870   -1.5030 nc        1 7DE     -0.510800
     16 C9          8.6380    1.2070   -0.9690 c3        1 7DE     -0.144400
     17 C14         8.9580   -0.4890   -3.6210 c         1 7DE      0.688700
     18 O18        10.1020   -0.2690   -3.2080 o         1 7DE     -0.551000
     19 O15         8.8320   -1.1710   -4.8090 os        1 7DE     -0.452900
     20 C16        10.0390   -1.5660   -5.4770 c3        1 7DE      0.141400
     21 C17        10.6200   -0.4200   -6.2670 c3        1 7DE     -0.126100
     22 H13         0.1960   -0.0380   -2.5420 ha        1 7DE      0.177000
     23 H11         3.9440   -0.2840   -0.3430 ha        1 7DE      0.196000
     24 H2          3.9410    0.5160   -4.6380 ha        1 7DE      0.156000
     25 H1          1.4650    0.4020   -4.6480 ha        1 7DE      0.155000
     26 H61         4.9540   -1.6740   -4.4630 hc        1 7DE      0.071033
     27 H62         5.9250   -0.5440   -5.5110 hc        1 7DE      0.071033
     28 H63         6.7100   -2.0180   -4.8080 hc        1 7DE      0.071033
     29 H91         9.5830    0.6390   -1.1650 hc        1 7DE      0.068700
     30 H92         8.8020    2.2790   -1.2490 hc        1 7DE      0.068700
     31 H93         8.4000    1.1580    0.1230 hc        1 7DE      0.068700
     32 H161       10.7780   -1.9580   -4.7300 h1        1 7DE      0.061200
     33 H162        9.6870   -2.3960   -6.1480 h1        1 7DE      0.061200
     34 H171       11.5020   -0.7780   -6.8510 hc        1 7DE      0.049700
     35 H172       10.9490    0.3940   -5.5760 hc        1 7DE      0.049700
     36 H173        9.8630   -0.0030   -6.9730 hc        1 7DE      0.049700
@<TRIPOS>BOND
     1    1    2 1   
     2    2    3 1   
     3    2    4 1   
     4    4    5 ar  
     5    4    6 ar  
     6    5    9 ar  
     7    5   22 1   
     8    6    7 ar  
     9    6   23 1   
    10    7    8 ar  
    11    7   10 1   
    12    8    9 ar  
    13    8   24 1   
    14    9   25 1   
    15   10   11 1   
    16   10   15 1   
    17   11   12 1   
    18   11   13 2   
    19   12   26 1   
    20   12   27 1   
    21   12   28 1   
    22   13   14 1   
    23   13   17 1   
    24   14   15 2   
    25   14   16 1   
    26   16   29 1   
    27   16   30 1   
    28   16   31 1   
    29   17   18 2   
    30   17   19 1   
    31   19   20 1   
    32   20   21 1   
    33   20   32 1   
    34   20   33 1   
    35   21   34 1   
    36   21   35 1   
    37   21   36 1   
@<TRIPOS>SUBSTRUCTURE
     1 7DE         1 TEMP              0 ****  ****    0 ROOT
