@<TRIPOS>MOLECULE
7DE
   36    37     1     0     0
SMALL
bcc


@<TRIPOS>ATOM
      1 O21         0.0550   -0.4710   -0.1200 o         1 7DE     -0.200000
      2 N19         1.2560   -0.4650   -0.0820 no        1 7DE      0.313200
      3 O20         1.8670   -0.6750    0.9300 o         1 7DE     -0.200000
      4 C12         2.0090   -0.1920   -1.3380 ca        1 7DE     -0.167200
      5 C13         1.3000    0.0200   -2.5300 ca        1 7DE     -0.069000
      6 C11         3.4100   -0.1540   -1.3000 ca        1 7DE     -0.055000
      7 C3          4.1140    0.1010   -2.4940 ca        1 7DE      0.014800
      8 C2          3.4050    0.3280   -3.6910 ca        1 7DE     -0.102000
      9 C1          2.0140    0.2780   -3.6980 ca        1 7DE     -0.129000
     10 N4          5.5370    0.1500   -2.4810 na        1 7DE      0.144300
     11 C5          6.3880   -0.4280   -3.4390 cc        1 7DE      0.011400
     12 C6          5.9550   -1.1850   -4.6250 c3        1 7DE     -0.054800
     13 C7          7.7010   -0.1400   -3.0090 cd        1 7DE     -0.320900
     14 C8          7.5470    0.6150   -1.7700 cd        1 7DE      0.393600
     15 N10         6.2280    0.7610   -1.4880 nc        1 7DE     -0.510800
     16 C9          8.6460    1.1580   -0.9460 c3        1 7DE     -0.144400
     17 C14         8.9570   -0.4990   -3.6250 c         1 7DE      0.688700
     18 O18        10.1020   -0.2910   -3.2080 o         1 7DE     -0.551000
     19 O15         8.8260   -1.1610   -4.8230 os        1 7DE     -0.452900
     20 C16        10.0310   -1.5530   -5.4970 c3        1 7DE      0.141400
     21 C17        10.6200   -0.3980   -6.2690 c3        1 7DE     -0.126100
     22 H13         0.1970   -0.0130   -2.5390 ha        1 7DE      0.177000
     23 H11         3.9440   -0.3160   -0.3440 ha        1 7DE      0.196000
     24 H2          3.9460    0.5520   -4.6260 ha        1 7DE      0.156000
     25 H1          1.4690    0.4530   -4.6390 ha        1 7DE      0.155000
     26 H61         4.9460   -1.6470   -4.4860 hc        1 7DE      0.071033
     27 H62         5.9230   -0.5060   -5.5160 hc        1 7DE      0.071033
     28 H63         6.7000   -1.9960   -4.8350 hc        1 7DE      0.071033
     29 H91         9.5870    0.5870   -1.1510 hc        1 7DE      0.068367
     30 H92         8.8160    2.2330   -1.2100 hc        1 7DE      0.068367
     31 H93         8.4080    1.0940    0.1440 hc        1 7DE      0.068367
     32 H161       10.7680   -1.9600   -4.7560 h1        1 7DE      0.061200
     33 H162        9.6750   -2.3700   -6.1810 h1        1 7DE      0.061200
     34 H171       11.4990   -0.7530   -6.8580 hc        1 7DE      0.049700
     35 H172       10.9530    0.4030   -5.5660 hc        1 7DE      0.049700
     36 H173        9.8650    0.0340   -6.9690 hc        1 7DE      0.049700
@<TRIPOS>BOND
     1    1    2 1   
     2    2    3 1   
     3    2    4 1   
     4    4    5 ar  
     5    4    6 ar  
     6    5    9 ar  
     7    5   22 1   
     8    6    7 ar  
     9    6   23 1   
    10    7    8 ar  
    11    7   10 1   
    12    8    9 ar  
    13    8   24 1   
    14    9   25 1   
    15   10   11 1   
    16   10   15 1   
    17   11   12 1   
    18   11   13 2   
    19   12   26 1   
    20   12   27 1   
    21   12   28 1   
    22   13   14 1   
    23   13   17 1   
    24   14   15 2   
    25   14   16 1   
    26   16   29 1   
    27   16   30 1   
    28   16   31 1   
    29   17   18 2   
    30   17   19 1   
    31   19   20 1   
    32   20   21 1   
    33   20   32 1   
    34   20   33 1   
    35   21   34 1   
    36   21   35 1   
    37   21   36 1   
@<TRIPOS>SUBSTRUCTURE
     1 7DE         1 TEMP              0 ****  ****    0 ROOT
