@<TRIPOS>MOLECULE
7DE
   36    37     1     0     0
SMALL
bcc


@<TRIPOS>ATOM
      1 O21         0.0680   -0.4980   -0.0960 o         1 7DE     -0.200000
      2 N19         1.2690   -0.4740   -0.0620 no        1 7DE      0.313200
      3 O20         1.8860   -0.6550    0.9520 o         1 7DE     -0.200000
      4 C12         2.0140   -0.2150   -1.3250 ca        1 7DE     -0.167200
      5 C13         1.2990   -0.0370   -2.5200 ca        1 7DE     -0.069000
      6 C11         3.4150   -0.1570   -1.2930 ca        1 7DE     -0.055000
      7 C3          4.1120    0.0850   -2.4940 ca        1 7DE      0.014800
      8 C2          3.3960    0.2770   -3.6930 ca        1 7DE     -0.102000
      9 C1          2.0060    0.2060   -3.6940 ca        1 7DE     -0.129000
     10 N4          5.5340    0.1540   -2.4860 na        1 7DE      0.144300
     11 C5          6.3900   -0.4300   -3.4360 cc        1 7DE      0.011400
     12 C6          5.9650   -1.2170   -4.6050 c3        1 7DE     -0.054800
     13 C7          7.7000   -0.1140   -3.0160 cd        1 7DE     -0.320900
     14 C8          7.5390    0.6640   -1.7910 cd        1 7DE      0.393600
     15 N10         6.2180    0.7960   -1.5080 nc        1 7DE     -0.510800
     16 C9          8.6320    1.2390   -0.9830 c3        1 7DE     -0.144400
     17 C14         8.9590   -0.4670   -3.6280 c         1 7DE      0.688700
     18 O18        10.1020   -0.2330   -3.2200 o         1 7DE     -0.551000
     19 O15         8.8350   -1.1560   -4.8120 os        1 7DE     -0.452900
     20 C16        10.0430   -1.5430   -5.4820 c3        1 7DE      0.141400
     21 C17        10.6110   -0.3960   -6.2810 c3        1 7DE     -0.126100
     22 H13         0.1970   -0.0870   -2.5250 ha        1 7DE      0.177000
     23 H11         3.9540   -0.2910   -0.3360 ha        1 7DE      0.196000
     24 H2          3.9310    0.4900   -4.6340 ha        1 7DE      0.156000
     25 H1          1.4560    0.3540   -4.6370 ha        1 7DE      0.155000
     26 H61         4.9630   -1.6910   -4.4520 hc        1 7DE      0.071033
     27 H62         6.7220   -2.0210   -4.8010 hc        1 7DE      0.071033
     28 H63         5.9210   -0.5570   -5.5090 hc        1 7DE      0.071033
     29 H91         9.5810    0.6790   -1.1810 hc        1 7DE      0.068700
     30 H92         8.7840    2.3110   -1.2670 hc        1 7DE      0.068700
     31 H93         8.3980    1.1920    0.1100 hc        1 7DE      0.068700
     32 H161        9.6980   -2.3800   -6.1470 h1        1 7DE      0.061200
     33 H162       10.7890   -1.9230   -4.7350 h1        1 7DE      0.061200
     34 H171       10.9340    0.4250   -5.5960 hc        1 7DE      0.049700
     35 H172       11.4940   -0.7500   -6.8650 hc        1 7DE      0.049700
     36 H173        9.8480    0.0090   -6.9870 hc        1 7DE      0.049700
@<TRIPOS>BOND
     1    1    2 1   
     2    2    3 1   
     3    2    4 1   
     4    4    5 ar  
     5    4    6 ar  
     6    5    9 ar  
     7    5   22 1   
     8    6    7 ar  
     9    6   23 1   
    10    7    8 ar  
    11    7   10 1   
    12    8    9 ar  
    13    8   24 1   
    14    9   25 1   
    15   10   11 1   
    16   10   15 1   
    17   11   12 1   
    18   11   13 2   
    19   12   26 1   
    20   12   27 1   
    21   12   28 1   
    22   13   14 1   
    23   13   17 1   
    24   14   15 2   
    25   14   16 1   
    26   16   29 1   
    27   16   30 1   
    28   16   31 1   
    29   17   18 2   
    30   17   19 1   
    31   19   20 1   
    32   20   21 1   
    33   20   32 1   
    34   20   33 1   
    35   21   34 1   
    36   21   35 1   
    37   21   36 1   
@<TRIPOS>SUBSTRUCTURE
     1 7DE         1 TEMP              0 ****  ****    0 ROOT
