@<TRIPOS>MOLECULE
7DE
   36    37     1     0     0
SMALL
bcc


@<TRIPOS>ATOM
      1 O21         5.9770    0.0720    0.6520 o         1 7DE     -0.200000
      2 N19         4.8980   -0.4560    0.6820 no        1 7DE      0.313200
      3 O20         4.7370   -1.5630    1.1190 o         1 7DE     -0.200000
      4 C12         3.7200    0.2930    0.1630 ca        1 7DE     -0.167200
      5 C13         3.8960    1.6010   -0.3170 ca        1 7DE     -0.069000
      6 C11         2.4620   -0.3240    0.1660 ca        1 7DE     -0.055000
      7 C3          1.3520    0.3940   -0.3240 ca        1 7DE      0.014800
      8 C2          1.5270    1.7030   -0.8190 ca        1 7DE     -0.102000
      9 C1          2.7890    2.2910   -0.8030 ca        1 7DE     -0.129000
     10 N4          0.0640   -0.2120   -0.3360 na        1 7DE      0.144300
     11 C5         -1.1400    0.4080    0.0420 cc        1 7DE      0.011400
     12 C6         -1.2780    1.7950    0.5160 c3        1 7DE     -0.054800
     13 C7         -2.1420   -0.5730   -0.1170 cd        1 7DE     -0.320900
     14 C8         -1.4470   -1.7660   -0.5910 cd        1 7DE      0.393600
     15 N10        -0.1200   -1.5040   -0.7030 nc        1 7DE     -0.510800
     16 C9         -2.0770   -3.0600   -0.9190 c3        1 7DE     -0.144400
     17 C14        -3.5610   -0.4690    0.1300 c         1 7DE      0.688700
     18 O18        -4.4210   -1.3520    0.0430 o         1 7DE     -0.551000
     19 O15        -3.9740    0.7840    0.5160 os        1 7DE     -0.452900
     20 C16        -5.3720    0.9680    0.7810 c3        1 7DE      0.141400
     21 C17        -6.1440    1.1750   -0.4980 c3        1 7DE     -0.126100
     22 H13         4.8950    2.0690   -0.3120 ha        1 7DE      0.177000
     23 H11         2.3520   -1.3590    0.5420 ha        1 7DE      0.196000
     24 H2          0.6700    2.2650   -1.2260 ha        1 7DE      0.156000
     25 H1          2.9150    3.3150   -1.1890 ha        1 7DE      0.155000
     26 H61        -1.5650    2.4590   -0.3390 hc        1 7DE      0.071033
     27 H62        -2.0980    1.8410    1.2790 hc        1 7DE      0.071033
     28 H63        -0.3340    2.1800    0.9740 hc        1 7DE      0.071033
     29 H91        -2.2670   -3.1170   -2.0210 hc        1 7DE      0.068367
     30 H92        -1.4210   -3.9170   -0.6280 hc        1 7DE      0.068367
     31 H93        -3.0570   -3.1480   -0.3840 hc        1 7DE      0.068367
     32 H161       -5.3810    1.8900    1.4240 h1        1 7DE      0.061200
     33 H162       -5.7700    0.0910    1.3550 h1        1 7DE      0.061200
     34 H171       -5.7110    2.0190   -1.0880 hc        1 7DE      0.049700
     35 H172       -6.1070    0.2490   -1.1220 hc        1 7DE      0.049700
     36 H173       -7.2080    1.4090   -0.2590 hc        1 7DE      0.049700
@<TRIPOS>BOND
     1    1    2 1   
     2    2    3 1   
     3    2    4 1   
     4    4    5 ar  
     5    4    6 ar  
     6    5    9 ar  
     7    5   22 1   
     8    6    7 ar  
     9    6   23 1   
    10    7    8 ar  
    11    7   10 1   
    12    8    9 ar  
    13    8   24 1   
    14    9   25 1   
    15   10   11 1   
    16   10   15 1   
    17   11   12 1   
    18   11   13 2   
    19   12   26 1   
    20   12   27 1   
    21   12   28 1   
    22   13   14 1   
    23   13   17 1   
    24   14   15 2   
    25   14   16 1   
    26   16   29 1   
    27   16   30 1   
    28   16   31 1   
    29   17   18 2   
    30   17   19 1   
    31   19   20 1   
    32   20   21 1   
    33   20   32 1   
    34   20   33 1   
    35   21   34 1   
    36   21   35 1   
    37   21   36 1   
@<TRIPOS>SUBSTRUCTURE
     1 7DE         1 TEMP              0 ****  ****    0 ROOT
