@<TRIPOS>MOLECULE
7DG
   18    19     1     0     0
SMALL
bcc


@<TRIPOS>ATOM
      1 N9         -0.0360   -0.1420   -0.1000 ne        1 7DG     -0.497300
      2 C8          1.2760   -0.1360    0.0160 c2        1 7DG      0.455200
      3 C7          1.7900   -0.0670    1.4530 c3        1 7DG     -0.136500
      4 C5          0.4930   -0.0320    2.1970 cd        1 7DG     -0.238400
      5 C6          0.2230    0.0360    3.6140 c         1 7DG      0.734700
      6 O6          1.0080    0.0810    4.5630 o         1 7DG     -0.527500
      7 N1         -1.1810    0.0510    3.9350 n         1 7DG     -0.491400
      8 C2         -2.1230    0.0020    2.9110 cd        1 7DG      0.522800
      9 N2         -3.5750    0.0200    3.2980 n4        1 7DG     -0.803600
     10 N3         -1.8930   -0.0610    1.5990 nc        1 7DG     -0.520300
     11 C4         -0.5450   -0.0770    1.2480 cc        1 7DG      0.336200
     12 H8          1.9460   -0.1770   -0.8550 h4        1 7DG      0.082800
     13 H71         2.4090   -0.9650    1.7120 hc        1 7DG      0.135700
     14 H72         2.4090    0.8520    1.6250 hc        1 7DG      0.135700
     15 HN1        -1.4370    0.0970    4.8990 hn        1 7DG      0.353500
     16 HN21       -3.7860    0.8860    3.8070 hn        1 7DG      0.486133
     17 HN22       -4.1580   -0.0210    2.4450 hn        1 7DG      0.486133
     18 H23        -3.7850   -0.7950    3.8860 hn        1 7DG      0.486133
@<TRIPOS>BOND
     1    1    2 2   
     2    1   11 1   
     3    2    3 1   
     4    2   12 1   
     5    3    4 1   
     6    3   13 1   
     7    3   14 1   
     8    4    5 1   
     9    4   11 2   
    10    5    6 2   
    11    5    7 1   
    12    7    8 1   
    13    7   15 1   
    14    8    9 1   
    15    8   10 2   
    16    9   16 1   
    17    9   17 1   
    18    9   18 1   
    19   10   11 1   
@<TRIPOS>SUBSTRUCTURE
     1 7DG         1 TEMP              0 ****  ****    0 ROOT
