@<TRIPOS>MOLECULE
7DG
   18    19     1     0     0
SMALL
bcc


@<TRIPOS>ATOM
      1 N9         -0.0460    0.1040   -0.1060 ne        1 7DG     -0.497300
      2 C8          1.2660    0.1110    0.0090 c2        1 7DG      0.455200
      3 C7          1.7820    0.0780    1.4460 c3        1 7DG     -0.136500
      4 C5          0.4860    0.0490    2.1920 cd        1 7DG     -0.238400
      5 C6          0.2180    0.0110    3.6110 c         1 7DG      0.734700
      6 O6          1.0040   -0.0070    4.5590 o         1 7DG     -0.527500
      7 N1         -1.1860   -0.0070    3.9340 n         1 7DG     -0.491400
      8 C2         -2.1290    0.0120    2.9100 cd        1 7DG      0.522800
      9 N2         -3.5810   -0.0090    3.2990 n4        1 7DG     -0.803600
     10 N3         -1.9010    0.0470    1.5960 nc        1 7DG     -0.520300
     11 C4         -0.5540    0.0660    1.2440 cc        1 7DG      0.336200
     12 H8          1.9340    0.1380   -0.8630 h4        1 7DG      0.082800
     13 H71         2.3950    0.9860    1.6840 hc        1 7DG      0.135700
     14 H72         2.4080   -0.8320    1.6380 hc        1 7DG      0.135700
     15 HN1        -1.4410   -0.0340    4.8990 hn        1 7DG      0.353500
     16 HN21       -4.1650    0.0080    2.4450 hn        1 7DG      0.486133
     17 HN22       -3.7970    0.8180    3.8690 hn        1 7DG      0.486133
     18 H23        -3.7840   -0.8650    3.8270 hn        1 7DG      0.486133
@<TRIPOS>BOND
     1    1    2 2   
     2    1   11 1   
     3    2    3 1   
     4    2   12 1   
     5    3    4 1   
     6    3   13 1   
     7    3   14 1   
     8    4    5 1   
     9    4   11 2   
    10    5    6 2   
    11    5    7 1   
    12    7    8 1   
    13    7   15 1   
    14    8    9 1   
    15    8   10 2   
    16    9   16 1   
    17    9   17 1   
    18    9   18 1   
    19   10   11 1   
@<TRIPOS>SUBSTRUCTURE
     1 7DG         1 TEMP              0 ****  ****    0 ROOT
