@<TRIPOS>MOLECULE
7DG
   17    18     1     0     0
SMALL
bcc


@<TRIPOS>ATOM
      1 N9          1.6570    0.0140   -1.7940 ne        1 7DG     -0.520300
      2 C8          0.7620    0.0140   -2.7530 c2        1 7DG      0.417200
      3 C7         -0.6910    0.0040   -2.2780 c3        1 7DG     -0.108500
      4 C5         -0.4790    0.0000   -0.8000 cd        1 7DG     -0.355400
      5 C6         -1.4210   -0.0090    0.2820 c         1 7DG      0.740700
      6 O6         -2.6630   -0.0100    0.2270 o         1 7DG     -0.632500
      7 N1         -0.8210   -0.0090    1.5730 n         1 7DG     -0.496400
      8 C2          0.5750   -0.0310    1.7370 cd        1 7DG      0.683800
      9 N2          1.0750   -0.1560    3.0470 nh        1 7DG     -0.898800
     10 N3          1.4690    0.0030    0.7090 nc        1 7DG     -0.646300
     11 C4          0.9110    0.0030   -0.5490 cc        1 7DG      0.385200
     12 H8          1.0360    0.0200   -3.8140 h4        1 7DG      0.047800
     13 H71        -1.2290   -0.9080   -2.6370 hc        1 7DG      0.096700
     14 H72        -1.2400    0.9120   -2.6300 hc        1 7DG      0.096700
     15 HN1        -1.4270   -0.0660    2.3620 hn        1 7DG      0.334500
     16 HN21        2.0640   -0.0620    3.1350 hn        1 7DG      0.427800
     17 HN22        0.5470    0.2790    3.7670 hn        1 7DG      0.427800
@<TRIPOS>BOND
     1    1    2 2   
     2    1   11 1   
     3    2    3 1   
     4    2   12 1   
     5    3    4 1   
     6    3   13 1   
     7    3   14 1   
     8    4    5 1   
     9    4   11 2   
    10    5    6 2   
    11    5    7 1   
    12    7    8 1   
    13    7   15 1   
    14    8    9 1   
    15    8   10 2   
    16    9   16 1   
    17    9   17 1   
    18   10   11 1   
@<TRIPOS>SUBSTRUCTURE
     1 7DG         1 TEMP              0 ****  ****    0 ROOT
