@<TRIPOS>MOLECULE
7DG
   17    15     1     0     0
SMALL
bcc


@<TRIPOS>ATOM
      1 N9          0.3190    0.0330   -2.4170 n1        1 7DG     -0.092000
      2 C8          1.7340    0.0330   -2.4170 c1        1 7DG     -0.075000
      3 C7          2.2970    0.0330   -0.9370 c2        1 7DG     -0.116000
      4 C5          0.9190    0.0330   -0.1970 c2        1 7DG     -0.332000
      5 C6          0.6280    0.0330    1.2620 c2        1 7DG      0.379000
      6 O6          1.5380    0.1110    2.0630 o         1 7DG     -0.357000
      7 N1         -0.7140    0.0330    1.7150 n         1 7DG     -0.336000
      8 C2         -1.8030    0.0330    0.7560 c2        1 7DG      0.237000
      9 N2         -3.1430   -0.0770    1.2060 n3        1 7DG     -0.337000
     10 N3         -1.5170    0.0330   -0.6700 n1        1 7DG     -0.218000
     11 C4         -0.1610    0.0330   -1.1390 c1        1 7DG      0.104000
     12 H8          2.2220   -0.4280   -3.1250 ha        1 7DG      0.177000
     13 H71         2.9320   -0.6210   -0.5890 ha        1 7DG      0.136000
     14 H72         2.7920    0.8670   -0.8200 ha        1 7DG      0.136000
     15 HN1        -0.8940    0.0510    2.6090 hn        1 7DG      0.248000
     16 HN21       -3.8220   -0.1580    0.6020 hn        1 7DG      0.223000
     17 HN22       -3.3290   -0.0450    2.0980 hn        1 7DG      0.223000
@<TRIPOS>BOND
     1    1    2 1   
     2    2   12 1   
     3    3    4 1   
     4    3   13 1   
     5    3   14 1   
     6    4    5 1   
     7    4   11 1   
     8    5    6 1   
     9    5    7 1   
    10    7    8 1   
    11    7   15 1   
    12    8    9 1   
    13    8   10 1   
    14    9   16 1   
    15    9   17 1   
@<TRIPOS>SUBSTRUCTURE
     1 7DG         1 TEMP              0 ****  ****    0 ROOT
