@<TRIPOS>MOLECULE
7DG
   18    19     1     0     0
SMALL
bcc


@<TRIPOS>ATOM
      1 N9         -0.0490   -0.1230   -0.1050 ne        1 7DG     -0.497300
      2 C8          1.2630   -0.1270    0.0080 c2        1 7DG      0.455200
      3 C7          1.7810   -0.0760    1.4440 c3        1 7DG     -0.136500
      4 C5          0.4860   -0.0400    2.1920 cd        1 7DG     -0.238400
      5 C6          0.2190    0.0160    3.6100 c         1 7DG      0.734700
      6 O6          1.0060    0.0470    4.5570 o         1 7DG     -0.527500
      7 N1         -1.1850    0.0370    3.9340 ns        1 7DG     -0.491400
      8 C2         -2.1280    0.0040    2.9110 cd        1 7DG      0.522800
      9 N2         -3.5800    0.0280    3.3010 nz        1 7DG     -0.803600
     10 N3         -1.9020   -0.0470    1.5980 nc        1 7DG     -0.520300
     11 C4         -0.5550   -0.0690    1.2440 cc        1 7DG      0.336200
     12 H8          1.9310   -0.1650   -0.8640 h4        1 7DG      0.082800
     13 H71         2.4060    0.8370    1.6240 hc        1 7DG      0.135700
     14 H72         2.3950   -0.9810    1.6930 hc        1 7DG      0.135700
     15 HN1        -1.4380    0.0750    4.8990 hn        1 7DG      0.353500
     16 HN21       -3.7840    0.8920    3.8180 hn        1 7DG      0.486133
     17 HN22       -3.7940   -0.7900    3.8830 hn        1 7DG      0.486133
     18 H23        -4.1650   -0.0010    2.4490 hn        1 7DG      0.486133
@<TRIPOS>BOND
     1    1    2 2   
     2    1   11 1   
     3    2    3 1   
     4    2   12 1   
     5    3    4 1   
     6    3   13 1   
     7    3   14 1   
     8    4    5 1   
     9    4   11 2   
    10    5    6 2   
    11    5    7 1   
    12    7    8 1   
    13    7   15 1   
    14    8    9 1   
    15    8   10 2   
    16    9   16 1   
    17    9   17 1   
    18    9   18 1   
    19   10   11 1   
@<TRIPOS>SUBSTRUCTURE
     1 7DG         1 TEMP              0 ****  ****    0 ROOT
