@<TRIPOS>MOLECULE
7DM
   21    19     1     0     0
SMALL
bcc


@<TRIPOS>ATOM
      1 C25         0.9710    0.2780    0.3820 c2        1 7DM      0.415000
      2 O26         2.2220    0.3430    0.2830 o         1 7DM     -0.536000
      3 C27         0.3860    0.1700    1.7340 c1        1 7DM     -0.068000
      4 C28        -2.8470   -0.1880   -0.0780 c2        1 7DM     -0.545000
      5 C29        -3.3300   -0.3450    1.1090 c1        1 7DM      0.052000
      6 C30        -2.0290   -0.2020    4.1910 c2        1 7DM     -0.039000
      7 C31        -0.6770   -0.0500    4.1080 c2        1 7DM      0.002000
      8 C32        -0.0910    0.0720    2.8330 c1        1 7DM     -0.275000
      9 C33         0.2450   -0.0200    5.2500 c2        1 7DM     -0.156000
     10 C34        -0.1160    0.4380    6.4610 c1        1 7DM      0.092000
     11 C35        -2.7300    0.4300    6.4770 c2        1 7DM      0.255000
     12 O36        -3.5190    0.2370    7.4190 o         1 7DM     -0.379000
     13 N37        -2.8200   -0.3270    5.3280 ns        1 7DM     -0.336000
     14 O38         1.5360   -0.4930    5.0780 oh        1 7DM     -0.253000
     15 H28        -3.3390   -0.1950   -1.0560 ha        1 7DM      0.236500
     16 H32        -1.7310   -0.0100   -0.1940 ha        1 7DM      0.236500
     17 H29        -2.6140   -0.2880    3.2390 h4        1 7DM      0.192000
     18 H37        -3.5870   -0.9610    5.2480 hn        1 7DM      0.235000
     19 H34        -1.9480    1.2310    6.4910 h5        1 7DM      0.162000
     20 H38         1.7200   -0.5120    4.1220 ho        1 7DM      0.248000
     21 OXT         0.1650    0.2930   -0.5950 o         1 7DM     -0.536000
@<TRIPOS>BOND
     1    1    2 1   
     2    1    3 1   
     3    1   21 1   
     4    3    8 1   
     5    4    5 1   
     6    4   15 1   
     7    4   16 1   
     8    6    7 1   
     9    6   13 1   
    10    6   17 1   
    11    7    8 1   
    12    7    9 1   
    13    9   10 1   
    14    9   14 1   
    15   11   12 1   
    16   11   13 1   
    17   11   19 1   
    18   13   18 1   
    19   14   20 1   
@<TRIPOS>SUBSTRUCTURE
     1 7DM         1 TEMP              0 ****  ****    0 ROOT
