@<TRIPOS>MOLECULE
7DR
   51    54     1     0     0
SMALL
bcc


@<TRIPOS>ATOM
      1 N1         -0.7200    0.1620    0.7110 nb        1 7DR     -0.662000
      2 C2          0.5640   -0.0290    0.3090 ca        1 7DR      0.725900
      3 N3          1.7030   -0.0040    1.0900 nb        1 7DR     -0.635000
      4 C4          1.5340    0.2330    2.4010 ca        1 7DR      0.533600
      5 C5          0.2140    0.4490    2.9590 ca        1 7DR     -0.030600
      6 C6         -0.8790    0.4010    2.0500 ca        1 7DR      0.486200
      7 CAA         4.0540    0.0830    2.7070 c3        1 7DR     -0.101100
      8 CAB        -6.0990   -0.2270    3.8570 c3        1 7DR      0.123700
      9 NAC         0.7850   -0.2970   -1.1420 n4        1 7DR     -0.813300
     10 NAD        -2.2560    0.6150    2.5340 n4        1 7DR     -0.821300
     11 CAE        -0.2870    0.8740    5.4650 c1        1 7DR      0.140900
     12 CAF        -0.0050    0.6830    4.3070 cg        1 7DR     -0.312000
     13 CAG        -8.4360    3.8740    6.5220 ce        1 7DR     -0.156000
     14 CAH        -8.2060    2.7980    7.2920 c2        1 7DR     -0.131200
     15 CAI        -7.3540    4.4940    5.7860 ce        1 7DR     -0.051000
     16 CAJ        -6.8610    2.1950    7.4550 c3        1 7DR     -0.053200
     17 CAK        -6.1220    3.9530    5.7740 c2        1 7DR     -0.216200
     18 CAL        -2.9660    0.4920    5.5180 ca        1 7DR     -0.247000
     19 CAM        -3.0930    2.2820    7.2150 ca        1 7DR     -0.057000
     20 CAN        -4.9790    1.6800    5.7690 ca        1 7DR     -0.240300
     21 CAO         2.7030    0.2830    3.3400 c3        1 7DR     -0.148700
     22 CAP        -0.9000    1.0970    6.7460 c3        1 7DR     -0.011000
     23 OAS        -4.6890    0.0340    3.9440 os        1 7DR     -0.416900
     24 CAU        -2.3720    1.2810    6.5060 ca        1 7DR     -0.061300
     25 CAW        -4.3010    0.7250    5.0740 ca        1 7DR      0.159100
     26 CAX        -5.8170    2.7020    6.4870 cx        1 7DR      0.205800
     27 CAY        -4.3870    2.4050    6.8110 ca        1 7DR     -0.115300
     28 HAA         4.8400    0.1460    3.5020 hc        1 7DR      0.066700
     29 HAAA        4.2670    0.8700    1.9440 hc        1 7DR      0.066700
     30 HAAB        4.1320   -0.9200    2.2210 hc        1 7DR      0.066700
     31 HAB        -6.4080   -0.9010    4.6920 h1        1 7DR      0.066367
     32 HABA       -6.6680    0.7330    3.8920 h1        1 7DR      0.066367
     33 HABB       -6.2130   -0.7350    2.8670 h1        1 7DR      0.066367
     34 HNAC       -0.1090   -0.3020   -1.6540 hn        1 7DR      0.496467
     35 HNAA        1.2470   -1.2140   -1.2470 hn        1 7DR      0.496467
     36 HNAD       -2.2370    1.1540    3.4230 hn        1 7DR      0.496133
     37 HNAB       -2.7190   -0.2910    2.7330 hn        1 7DR      0.496133
     38 HAG        -9.4380    4.3230    6.4320 ha        1 7DR      0.157000
     39 HAH        -9.0090    2.3190    7.8750 ha        1 7DR      0.152000
     40 HAI        -7.5760    5.4280    5.2450 ha        1 7DR      0.151000
     41 HAJ        -6.5070    2.4140    8.5040 hc        1 7DR      0.083200
     42 HAK        -5.2910    4.4210    5.2280 ha        1 7DR      0.131000
     43 HAL        -2.4320   -0.3830    5.1190 ha        1 7DR      0.126000
     44 HAM        -2.6230    2.8800    8.0080 ha        1 7DR      0.176000
     45 HAN        -6.9460    1.0770    7.3640 hc        1 7DR      0.083200
     46 HAO         2.5280   -0.5060    4.1260 hc        1 7DR      0.102700
     47 HAOA        2.6680    1.2850    3.8580 hc        1 7DR      0.102700
     48 HAP        -0.4540    2.0030    7.2500 hc        1 7DR      0.130700
     49 HAPA       -0.7160    0.2150    7.4300 hc        1 7DR      0.130700
     50 HAC3        1.4010    0.4360   -1.5290 hn        1 7DR      0.496467
     51 HAD3       -2.8240    1.1230    1.8420 hn        1 7DR      0.496133
@<TRIPOS>BOND
     1    1    2 ar  
     2    1    6 ar  
     3    2    3 ar  
     4    2    9 1   
     5    3    4 ar  
     6    4    5 ar  
     7    4   21 1   
     8    5    6 ar  
     9    5   12 1   
    10    6   10 1   
    11    7   21 1   
    12    7   28 1   
    13    7   29 1   
    14    7   30 1   
    15    8   23 1   
    16    8   31 1   
    17    8   32 1   
    18    8   33 1   
    19    9   34 1   
    20    9   35 1   
    21    9   50 1   
    22   10   36 1   
    23   10   37 1   
    24   10   51 1   
    25   11   12 3   
    26   11   22 1   
    27   13   14 2   
    28   13   15 1   
    29   13   38 1   
    30   14   16 1   
    31   14   39 1   
    32   15   17 2   
    33   15   40 1   
    34   16   26 1   
    35   16   41 1   
    36   16   45 1   
    37   17   26 1   
    38   17   42 1   
    39   18   24 ar  
    40   18   25 ar  
    41   18   43 1   
    42   19   24 ar  
    43   19   27 ar  
    44   19   44 1   
    45   20   25 ar  
    46   20   26 1   
    47   20   27 ar  
    48   21   46 1   
    49   21   47 1   
    50   22   24 1   
    51   22   48 1   
    52   22   49 1   
    53   23   25 1   
    54   26   27 1   
@<TRIPOS>SUBSTRUCTURE
     1 7DR         1 TEMP              0 ****  ****    0 ROOT
