@<TRIPOS>MOLECULE
7DR
   49    41     1     0     0
SMALL
bcc


@<TRIPOS>ATOM
      1 N1          2.4660   -1.7450    4.2250 n1        1 7DR     -0.282500
      2 C2          3.7760   -1.3720    4.3410 c1        1 7DR      0.209000
      3 N3          4.4450   -0.8740    3.2570 n1        1 7DR     -0.282500
      4 C4          3.8150   -0.7500    2.0750 c1        1 7DR      0.116000
      5 C5          2.5000   -1.1240    1.9580 c1        1 7DR     -0.211000
      6 C6          1.8320   -1.6220    3.0440 c1        1 7DR      0.209000
      7 CAA         5.9810    0.2030    1.2670 c3        1 7DR     -0.201000
      8 CAB        -3.9530   -3.4080   -0.9280 c3        1 7DR     -0.077000
      9 NAC         4.4490   -1.5060    5.5960 n3        1 7DR     -0.339500
     10 NAD         0.8540   -2.4890    3.6300 n3        1 7DR     -0.339500
     11 CAE         1.2590   -1.0150   -0.4830 c1        1 7DR     -0.182000
     12 CAF         1.8070   -1.0630    0.5940 c1        1 7DR     -0.090000
     13 CAG        -3.7080    5.0640   -2.9660 c1        1 7DR     -0.126000
     14 CAH        -4.1440    3.9520   -3.6790 c1        1 7DR     -0.126000
     15 CAI        -2.9490    4.8970   -1.8120 c1        1 7DR     -0.126000
     16 CAJ        -3.8200    2.6730   -3.2390 c1        1 7DR     -0.126000
     17 CAK        -2.6250    3.6170   -1.3710 c1        1 7DR     -0.132000
     18 CAL        -1.8820   -1.5820   -1.6330 c1        1 7DR     -0.195000
     19 CAM        -1.2940    0.7580   -1.6610 c1        1 7DR     -0.151000
     20 CAN        -3.6140    0.0970   -1.6140 c1        1 7DR     -0.132000
     21 CAO         4.5870   -0.2700    0.8430 c3        1 7DR     -0.122000
     22 CAP         0.5660   -0.9550   -1.8490 c2        1 7DR     -0.009000
     23 OAS        -4.2210   -2.2600   -1.7180 os        1 7DR     -0.212000
     24 CAU        -0.9120   -0.5820   -1.6580 c1        1 7DR     -0.039000
     25 CAW        -3.2330   -1.2430   -1.6110 c1        1 7DR      0.080000
     26 CAX        -3.0610    2.5050   -2.0850 c1        1 7DR     -0.023000
     27 CAY        -2.6450    1.0970   -1.6390 c1        1 7DR     -0.023000
     28 HAA         5.8990    0.8320    2.0170 hc        1 7DR      0.079333
     29 HAAA        6.5190   -0.5710    1.5450 hc        1 7DR      0.079333
     30 HAAB        6.4190    0.6520    0.5090 hc        1 7DR      0.079333
     31 HAB        -4.2370   -3.2420   -0.0020 h1        1 7DR      0.085000
     32 HABA       -4.4480   -4.1780   -1.2890 h1        1 7DR      0.085000
     33 HABB       -2.9920   -3.6000   -0.9450 h1        1 7DR      0.085000
     34 HNAC        3.9760   -1.7340    6.3480 hn        1 7DR      0.228250
     35 HNAA        5.3520   -1.3550    5.6510 hn        1 7DR      0.228250
     36 HNAD        0.8270   -2.6010    4.5410 hn        1 7DR      0.228250
     37 HNAB        0.2650   -2.9430    3.0950 hn        1 7DR      0.228250
     38 HAG        -3.9360    5.9670   -3.2770 ha        1 7DR      0.133750
     39 HAH        -4.6790    4.0710   -4.4940 ha        1 7DR      0.133750
     40 HAI        -2.6410    5.6820   -1.3080 ha        1 7DR      0.133750
     41 HAJ        -4.1280    1.8890   -3.7420 ha        1 7DR      0.133750
     42 HAK        -2.0900    3.4990   -0.5580 ha        1 7DR      0.144000
     43 HAL        -1.6130   -2.5250   -1.6310 ha        1 7DR      0.147000
     44 HAM        -0.6120    1.4620   -1.6790 ha        1 7DR      0.138000
     45 HAN        -4.5660    0.3370   -1.5990 ha        1 7DR      0.144000
     46 HAO         4.6730   -1.0090    0.2020 hc        1 7DR      0.102000
     47 HAOA        4.1030    0.4740    0.4230 hc        1 7DR      0.102000
     48 HAP         1.0040   -0.2780   -2.4090 ha        1 7DR      0.107500
     49 HAPA        0.6280   -1.8330   -2.2860 ha        1 7DR      0.107500
@<TRIPOS>BOND
     1    1    6 1   
     2    2    3 1   
     3    2    9 1   
     4    4    5 1   
     5    4   21 1   
     6    5   12 1   
     7    6   10 1   
     8    7   21 1   
     9    7   28 1   
    10    7   29 1   
    11    7   30 1   
    12    8   23 1   
    13    8   31 1   
    14    8   32 1   
    15    8   33 1   
    16    9   34 1   
    17    9   35 1   
    18   10   36 1   
    19   10   37 1   
    20   11   12 1   
    21   13   15 1   
    22   13   38 1   
    23   14   16 1   
    24   14   39 1   
    25   15   40 1   
    26   16   41 1   
    27   17   26 1   
    28   17   42 1   
    29   18   25 1   
    30   18   43 1   
    31   19   24 1   
    32   19   44 1   
    33   20   27 1   
    34   20   45 1   
    35   21   46 1   
    36   21   47 1   
    37   22   24 1   
    38   22   48 1   
    39   22   49 1   
    40   23   25 1   
    41   26   27 1   
@<TRIPOS>SUBSTRUCTURE
     1 7DR         1 TEMP              0 ****  ****    0 ROOT
