@<TRIPOS>MOLECULE
7DR
   49    51     1     0     0
SMALL
bcc


@<TRIPOS>ATOM
      1 N1          0.1740   -0.5430   -0.0600 nb        1 7DR     -0.833000
      2 C2          1.5150   -0.8720   -0.0260 ca        1 7DR      0.916900
      3 N3          2.3280   -0.8420    1.1030 nb        1 7DR     -0.792000
      4 C4          1.7400   -0.4990    2.2650 ca        1 7DR      0.538600
      5 C5          0.3630   -0.1770    2.3610 ca        1 7DR     -0.338600
      6 C6         -0.4070   -0.2220    1.1380 ca        1 7DR      0.745200
      7 CAA         3.6170    0.6470    3.4460 c3        1 7DR     -0.087100
      8 CAB        -4.2260   -3.3170    4.7750 c3        1 7DR      0.112700
      9 NAC         2.0920   -1.3170   -1.2160 nv        1 7DR     -0.933500
     10 NAD        -1.7630    0.0260    1.1680 nv        1 7DR     -0.956500
     11 CAE        -0.7870    0.4820    4.5940 c1        1 7DR     -0.156100
     12 CAF        -0.2470    0.1770    3.5670 cg        1 7DR     -0.084000
     13 CAG        -7.9650    3.9240    7.9320 ca        1 7DR     -0.126000
     14 CAH        -8.2940    3.1040    6.8530 ca        1 7DR     -0.131500
     15 CAI        -6.7120    3.8100    8.5330 ca        1 7DR     -0.131500
     16 CAJ        -7.3750    2.1710    6.3760 ca        1 7DR     -0.116500
     17 CAK        -5.7890    2.8820    8.0580 ca        1 7DR     -0.116500
     18 CAL        -3.2740   -0.7870    5.5110 ca        1 7DR     -0.194000
     19 CAM        -3.7870    1.4180    6.3730 ca        1 7DR     -0.153000
     20 CAN        -5.5710   -0.1980    6.0910 ca        1 7DR     -0.147000
     21 CAO         2.5990   -0.4660    3.5030 c3        1 7DR     -0.138700
     22 CAP        -1.4110    0.8620    5.8250 c3        1 7DR      0.050000
     23 OAS        -5.1540   -2.3520    5.2590 os        1 7DR     -0.328900
     24 CAU        -2.8580    0.4920    5.8950 ca        1 7DR     -0.047300
     25 CAW        -4.6270   -1.1230    5.6110 ca        1 7DR      0.125100
     26 CAX        -6.1120    2.0530    6.9740 cp        1 7DR     -0.041000
     27 CAY        -5.1450    1.0760    6.4730 cp        1 7DR     -0.005000
     28 HAA         4.2050    0.6660    4.3960 hc        1 7DR      0.040700
     29 HAAA        3.1160    1.6370    3.3210 hc        1 7DR      0.040700
     30 HAAB        4.3240    0.4980    2.5950 hc        1 7DR      0.040700
     31 HAB        -4.8680   -4.2100    4.5640 h1        1 7DR      0.046033
     32 HABA       -3.4630   -3.5560    5.5550 h1        1 7DR      0.046033
     33 HABB       -3.7320   -2.9560    3.8410 h1        1 7DR      0.046033
     34 HNAC        1.6010   -1.1320   -2.0580 hn        1 7DR      0.431300
     35 HNAA        3.0830   -1.3260   -1.2640 hn        1 7DR      0.431300
     36 HNAD       -2.2640    0.1280    0.3190 hn        1 7DR      0.438800
     37 HNAB       -2.1360    0.4380    1.9890 hn        1 7DR      0.438800
     38 HAG        -8.6930    4.6590    8.3080 ha        1 7DR      0.132000
     39 HAH        -9.2810    3.1920    6.3760 ha        1 7DR      0.132500
     40 HAI        -6.4510    4.4540    9.3870 ha        1 7DR      0.132500
     41 HAJ        -7.6370    1.5280    5.5220 ha        1 7DR      0.136000
     42 HAK        -4.8030    2.7900    8.5400 ha        1 7DR      0.136000
     43 HAL        -2.5320   -1.5050    5.1320 ha        1 7DR      0.148000
     44 HAM        -3.4600    2.4260    6.6660 ha        1 7DR      0.137000
     45 HAN        -6.6270   -0.4920    6.1680 ha        1 7DR      0.153000
     46 HAO         1.9440   -0.3340    4.4040 hc        1 7DR      0.062700
     47 HAOA        3.1250   -1.4530    3.6110 hc        1 7DR      0.062700
     48 HAP        -1.2930    1.9740    5.9700 hc        1 7DR      0.068200
     49 HAPA       -0.8740    0.3580    6.6820 hc        1 7DR      0.068200
@<TRIPOS>BOND
     1    1    2 ar  
     2    1    6 ar  
     3    2    3 ar  
     4    2    9 1   
     5    3    4 ar  
     6    4    5 ar  
     7    4   21 1   
     8    5    6 ar  
     9    5   12 1   
    10    6   10 1   
    11    7   21 1   
    12    7   28 1   
    13    7   29 1   
    14    7   30 1   
    15    8   23 1   
    16    8   31 1   
    17    8   32 1   
    18    8   33 1   
    19    9   34 1   
    20    9   35 1   
    21   10   36 1   
    22   10   37 1   
    23   11   12 3   
    24   11   22 1   
    25   13   14 ar  
    26   13   15 ar  
    27   13   38 1   
    28   14   16 ar  
    29   14   39 1   
    30   15   17 ar  
    31   15   40 1   
    32   16   26 ar  
    33   16   41 1   
    34   17   26 ar  
    35   17   42 1   
    36   18   24 ar  
    37   18   25 ar  
    38   18   43 1   
    39   19   24 ar  
    40   19   27 ar  
    41   19   44 1   
    42   20   25 ar  
    43   20   27 ar  
    44   20   45 1   
    45   21   46 1   
    46   21   47 1   
    47   22   24 1   
    48   22   48 1   
    49   22   49 1   
    50   23   25 1   
    51   26   27 1   
@<TRIPOS>SUBSTRUCTURE
     1 7DR         1 TEMP              0 ****  ****    0 ROOT
