@<TRIPOS>MOLECULE
7DR
   49    51     1     0     0
SMALL
bcc


@<TRIPOS>ATOM
      1 N1          4.6940    0.0060   -2.0970 nb        1 7DR     -0.830000
      2 C2          5.8170   -0.1920   -1.3160 ca        1 7DR      0.914900
      3 N3          5.8230   -0.3670    0.0640 nb        1 7DR     -0.791000
      4 C4          4.6340   -0.2830    0.6920 ca        1 7DR      0.537600
      5 C5          3.4180   -0.0560   -0.0000 ca        1 7DR     -0.335600
      6 C6          3.4950    0.0660   -1.4380 ca        1 7DR      0.741200
      7 CAA         5.2950    0.7010    2.8870 c3        1 7DR     -0.088100
      8 CAB        -1.2390   -3.7960   -1.0920 c3        1 7DR      0.112700
      9 NAC         7.0550   -0.1590   -1.9620 nh        1 7DR     -0.932500
     10 NAD         2.3390    0.1910   -2.1820 nh        1 7DR     -0.951500
     11 CAE         1.1230    0.1400    1.1980 c1        1 7DR     -0.155100
     12 CAF         2.1870    0.0470    0.6530 cg        1 7DR     -0.085000
     13 CAG        -7.0750    2.6010    0.0840 ca        1 7DR     -0.126000
     14 CAH        -6.6140    1.9650   -1.0680 ca        1 7DR     -0.131000
     15 CAI        -6.3850    2.4450    1.2860 ca        1 7DR     -0.131000
     16 CAJ        -5.4680    1.1740   -1.0210 ca        1 7DR     -0.116500
     17 CAK        -5.2370    1.6580    1.3380 ca        1 7DR     -0.116500
     18 CAL        -1.2380   -1.3900    0.3410 ca        1 7DR     -0.194000
     19 CAM        -2.4520    0.6060    0.9850 ca        1 7DR     -0.152000
     20 CAN        -3.5120   -1.0200   -0.4650 ca        1 7DR     -0.147000
     21 CAO         4.6180   -0.4530    2.1890 c3        1 7DR     -0.138700
     22 CAP        -0.1370    0.2670    1.8680 c3        1 7DR      0.050000
     23 OAS        -2.4010   -2.9760   -1.1350 os        1 7DR     -0.328900
     24 CAU        -1.2980   -0.1770    1.0380 ca        1 7DR     -0.047300
     25 CAW        -2.3450   -1.8020   -0.4060 ca        1 7DR      0.125100
     26 CAX        -4.7680    1.0150    0.1840 cp        1 7DR     -0.041000
     27 CAY        -3.5620    0.1870    0.2350 cp        1 7DR     -0.005000
     28 HAA         6.3720    0.7650    2.6000 hc        1 7DR      0.041367
     29 HAAA        4.8010    1.6680    2.6240 hc        1 7DR      0.041367
     30 HAAB        5.2300    0.5610    3.9940 hc        1 7DR      0.041367
     31 HAB        -1.0300   -4.1300   -0.0470 h1        1 7DR      0.046033
     32 HABA       -1.5140   -4.6690   -1.7380 h1        1 7DR      0.046033
     33 HABB       -0.3570   -3.2560   -1.5150 h1        1 7DR      0.046033
     34 HNAC        7.0560   -0.2740   -2.9470 hn        1 7DR      0.430800
     35 HNAA        7.8320   -0.5260   -1.4650 hn        1 7DR      0.430800
     36 HNAD        2.4030    0.4350   -3.1410 hn        1 7DR      0.435800
     37 HNAB        1.5130    0.4430   -1.6940 hn        1 7DR      0.435800
     38 HAG        -7.9810    3.2240    0.0460 ha        1 7DR      0.132000
     39 HAH        -7.1560    2.0870   -2.0180 ha        1 7DR      0.132500
     40 HAI        -6.7480    2.9430    2.1970 ha        1 7DR      0.132500
     41 HAJ        -5.1050    0.6760   -1.9330 ha        1 7DR      0.136000
     42 HAK        -4.6990    1.5320    2.2890 ha        1 7DR      0.136000
     43 HAL        -0.3210   -1.9950    0.3890 ha        1 7DR      0.148000
     44 HAM        -2.4940    1.5630    1.5250 ha        1 7DR      0.137000
     45 HAN        -4.3710   -1.3730   -1.0530 ha        1 7DR      0.153000
     46 HAO         3.5550   -0.5380    2.5400 hc        1 7DR      0.061700
     47 HAOA        5.1380   -1.4130    2.4570 hc        1 7DR      0.061700
     48 HAP        -0.1170   -0.3520    2.8120 hc        1 7DR      0.068200
     49 HAPA       -0.2800    1.3410    2.1810 hc        1 7DR      0.068200
@<TRIPOS>BOND
     1    1    2 ar  
     2    1    6 ar  
     3    2    3 ar  
     4    2    9 1   
     5    3    4 ar  
     6    4    5 ar  
     7    4   21 1   
     8    5    6 ar  
     9    5   12 1   
    10    6   10 1   
    11    7   21 1   
    12    7   28 1   
    13    7   29 1   
    14    7   30 1   
    15    8   23 1   
    16    8   31 1   
    17    8   32 1   
    18    8   33 1   
    19    9   34 1   
    20    9   35 1   
    21   10   36 1   
    22   10   37 1   
    23   11   12 3   
    24   11   22 1   
    25   13   14 ar  
    26   13   15 ar  
    27   13   38 1   
    28   14   16 ar  
    29   14   39 1   
    30   15   17 ar  
    31   15   40 1   
    32   16   26 ar  
    33   16   41 1   
    34   17   26 ar  
    35   17   42 1   
    36   18   24 ar  
    37   18   25 ar  
    38   18   43 1   
    39   19   24 ar  
    40   19   27 ar  
    41   19   44 1   
    42   20   25 ar  
    43   20   27 ar  
    44   20   45 1   
    45   21   46 1   
    46   21   47 1   
    47   22   24 1   
    48   22   48 1   
    49   22   49 1   
    50   23   25 1   
    51   26   27 1   
@<TRIPOS>SUBSTRUCTURE
     1 7DR         1 TEMP              0 ****  ****    0 ROOT
