@<TRIPOS>MOLECULE
7E8
   53    52     1     0     0
SMALL
bcc


@<TRIPOS>ATOM
      1 O22         9.1180   -0.6970   -0.9340 oh        1 7E8     -0.602800
      2 C19         8.5510   -0.1940    0.2630 c3        1 7E8      0.097400
      3 O20         6.5070   -0.3010    1.5330 oh        1 7E8     -0.596800
      4 C17         6.3400    0.0440   -0.8870 c3        1 7E8      0.104400
      5 O16         4.9650   -0.3460   -0.9070 os        1 7E8     -0.432900
      6 C8          4.0830    0.3740   -0.1460 c         1 7E8      0.645100
      7 O15         4.5110    1.3400    0.4910 o         1 7E8     -0.561000
      8 C7          2.6890   -0.1660   -0.2200 c3        1 7E8     -0.126400
      9 C6          1.6690    0.9530   -0.1880 c3        1 7E8     -0.079400
     10 C5          0.2640    0.3950   -0.1210 c3        1 7E8     -0.079400
     11 C4         -0.7620    1.5080   -0.1100 c3        1 7E8     -0.077400
     12 C3         -2.1690    0.9510   -0.0380 c3        1 7E8     -0.048200
     13 C2         -3.1960    2.0190   -0.0290 c2        1 7E8     -0.176200
     14 C1         -4.5120    1.7830   -0.0100 c2        1 7E8     -0.171200
     15 C9         -5.1050    0.4250    0.0000 c3        1 7E8     -0.049200
     16 C10        -6.6180    0.4590    0.0620 c3        1 7E8     -0.077400
     17 C11        -7.1950   -0.9400    0.0720 c3        1 7E8     -0.079400
     18 C12        -8.7070   -0.9090    0.1340 c3        1 7E8     -0.079400
     19 C13        -9.2870   -2.3080    0.1440 c3        1 7E8     -0.080400
     20 C14       -10.7920   -2.2820    0.2060 c3        1 7E8     -0.093100
     21 C18         7.0760   -0.6160    0.2790 c3        1 7E8      0.118100
     22 H22        10.0700   -0.5600   -0.8670 ho        1 7E8      0.406000
     23 H191        9.0680   -0.6240    1.1610 h1        1 7E8      0.034200
     24 H192        8.6410    0.9240    0.2880 h1        1 7E8      0.034200
     25 H18         6.9950   -1.7370    0.2030 h1        1 7E8      0.094700
     26 H20         6.3390    0.6520    1.5530 ho        1 7E8      0.420000
     27 H171        6.7460   -0.3440   -1.8600 h1        1 7E8      0.078200
     28 H172        6.4290    1.1600   -0.8370 h1        1 7E8      0.078200
     29 H7          2.5720   -0.7820   -1.1500 hc        1 7E8      0.081200
     30 H8          2.5510   -0.8470    0.6630 hc        1 7E8      0.081200
     31 H61C        1.8650    1.6120    0.7000 hc        1 7E8      0.057200
     32 H62C        1.7810    1.5900   -1.1040 hc        1 7E8      0.057200
     33 H51C        0.0820   -0.2770   -1.0020 hc        1 7E8      0.041700
     34 H52C        0.1500   -0.2320    0.8020 hc        1 7E8      0.041700
     35 H41C       -0.5780    2.1800    0.7690 hc        1 7E8      0.044700
     36 H42C       -0.6510    2.1330   -1.0340 hc        1 7E8      0.044700
     37 H31C       -2.3480    0.2680   -0.9140 hc        1 7E8      0.047200
     38 H32C       -2.2780    0.3210    0.8870 hc        1 7E8      0.047200
     39 H2         -2.8160    3.0540   -0.0360 ha        1 7E8      0.122000
     40 H1         -5.2270    2.6230   -0.0020 ha        1 7E8      0.123000
     41 H91C       -4.7790   -0.1300   -0.9220 hc        1 7E8      0.047700
     42 H92C       -4.7050   -0.1510    0.8800 hc        1 7E8      0.047700
     43 H101       -6.9440    1.0080    0.9850 hc        1 7E8      0.041700
     44 H102       -7.0180    1.0250   -0.8190 hc        1 7E8      0.041700
     45 H111       -6.8680   -1.4890   -0.8500 hc        1 7E8      0.039700
     46 H112       -6.7940   -1.5070    0.9540 hc        1 7E8      0.039700
     47 H121       -9.0350   -0.3610    1.0560 hc        1 7E8      0.039700
     48 H122       -9.1090   -0.3430   -0.7470 hc        1 7E8      0.039700
     49 H131       -8.9570   -2.8560   -0.7780 hc        1 7E8      0.038700
     50 H132       -8.8830   -2.8730    1.0260 hc        1 7E8      0.038700
     51 H141      -11.1400   -1.7620    1.1310 hc        1 7E8      0.032700
     52 H142      -11.2140   -1.7440   -0.6770 hc        1 7E8      0.032700
     53 H143      -11.1990   -3.3220    0.2120 hc        1 7E8      0.032700
@<TRIPOS>BOND
     1    1    2 1   
     2    1   22 1   
     3    2   21 1   
     4    2   23 1   
     5    2   24 1   
     6    3   21 1   
     7    3   26 1   
     8    4    5 1   
     9    4   21 1   
    10    4   27 1   
    11    4   28 1   
    12    5    6 1   
    13    6    7 2   
    14    6    8 1   
    15    8    9 1   
    16    8   29 1   
    17    8   30 1   
    18    9   10 1   
    19    9   31 1   
    20    9   32 1   
    21   10   11 1   
    22   10   33 1   
    23   10   34 1   
    24   11   12 1   
    25   11   35 1   
    26   11   36 1   
    27   12   13 1   
    28   12   37 1   
    29   12   38 1   
    30   13   14 2   
    31   13   39 1   
    32   14   15 1   
    33   14   40 1   
    34   15   16 1   
    35   15   41 1   
    36   15   42 1   
    37   16   17 1   
    38   16   43 1   
    39   16   44 1   
    40   17   18 1   
    41   17   45 1   
    42   17   46 1   
    43   18   19 1   
    44   18   47 1   
    45   18   48 1   
    46   19   20 1   
    47   19   49 1   
    48   19   50 1   
    49   20   51 1   
    50   20   52 1   
    51   20   53 1   
    52   21   25 1   
@<TRIPOS>SUBSTRUCTURE
     1 7E8         1 TEMP              0 ****  ****    0 ROOT
