@<TRIPOS>MOLECULE
7E8
   53    52     1     0     0
SMALL
bcc


@<TRIPOS>ATOM
      1 O22         0.4170    0.7850   -0.3400 oh        1 7E8     -0.611800
      2 C19         1.7460    0.2920   -0.2780 c3        1 7E8      0.092400
      3 O20         1.0440   -1.1380    1.5520 oh        1 7E8     -0.599800
      4 C17         3.3650   -0.7370    1.3470 c3        1 7E8      0.138400
      5 O16         3.9340   -0.0960    2.4990 os        1 7E8     -0.444900
      6 C8          5.1590   -0.5500    2.9110 c         1 7E8      0.634100
      7 O15         5.7060   -1.4310    2.2460 o         1 7E8     -0.541000
      8 C7          5.6310    0.1280    4.1590 c3        1 7E8     -0.127400
      9 C6          7.1330    0.3150    4.1410 c3        1 7E8     -0.079400
     10 C5          7.6190    0.8730    5.4620 c3        1 7E8     -0.079400
     11 C4          9.1190    1.0800    5.4440 c3        1 7E8     -0.077400
     12 C3          9.6070    1.6360    6.7660 c3        1 7E8     -0.048200
     13 C2         11.0730    1.8520    6.7760 c2        1 7E8     -0.176200
     14 C1         11.7370    2.3900    7.8050 c2        1 7E8     -0.171200
     15 C9         11.0870    2.8400    9.0590 c3        1 7E8     -0.049200
     16 C10        12.0880    3.3530   10.0730 c3        1 7E8     -0.077400
     17 C11        11.3980    3.8030   11.3430 c3        1 7E8     -0.079400
     18 C12        12.3960    4.3160   12.3580 c3        1 7E8     -0.079400
     19 C13        11.7070    4.7680   13.6290 c3        1 7E8     -0.080400
     20 C14        12.6980    5.2790   14.6430 c3        1 7E8     -0.093100
     21 C18         1.9710   -0.1300    1.1790 c3        1 7E8      0.140100
     22 H22         0.2310    0.9690   -1.2680 ho        1 7E8      0.410000
     23 H191        2.4710    1.0970   -0.5660 h1        1 7E8      0.037700
     24 H192        1.8660   -0.5890   -0.9620 h1        1 7E8      0.037700
     25 H18         1.8440    0.7640    1.8530 h1        1 7E8      0.069700
     26 H20         0.1630   -0.7790    1.3800 ho        1 7E8      0.421000
     27 H171        4.0200   -0.5300    0.4630 h1        1 7E8      0.068200
     28 H172        3.3070   -1.8430    1.5280 h1        1 7E8      0.068200
     29 H7          5.3270   -0.5200    5.0250 hc        1 7E8      0.079200
     30 H8          5.1110    1.1160    4.2720 hc        1 7E8      0.079200
     31 H61C        7.6300   -0.6700    3.9330 hc        1 7E8      0.057700
     32 H62C        7.4160    1.0100    3.3080 hc        1 7E8      0.057700
     33 H51C        7.1060    1.8490    5.6710 hc        1 7E8      0.041200
     34 H52C        7.3460    0.1700    6.2920 hc        1 7E8      0.041200
     35 H41C        9.3920    1.7850    4.6150 hc        1 7E8      0.044700
     36 H42C        9.6310    0.1050    5.2330 hc        1 7E8      0.044700
     37 H31C        9.3300    0.9300    7.5970 hc        1 7E8      0.047200
     38 H32C        9.0840    2.6080    6.9820 hc        1 7E8      0.047200
     39 H2         11.6140    1.5380    5.8690 ha        1 7E8      0.123000
     40 H1         12.8300    2.5240    7.7530 ha        1 7E8      0.123000
     41 H91C       10.3430    3.6510    8.8230 hc        1 7E8      0.047700
     42 H92C       10.5030    1.9880    9.5040 hc        1 7E8      0.047700
     43 H101       12.6650    4.2090    9.6340 hc        1 7E8      0.041700
     44 H102       12.8280    2.5440   10.3140 hc        1 7E8      0.041700
     45 H111       10.8210    2.9470   11.7820 hc        1 7E8      0.039700
     46 H112       10.6570    4.6110   11.1020 hc        1 7E8      0.039700
     47 H121       12.9730    5.1730   11.9200 hc        1 7E8      0.039700
     48 H122       13.1360    3.5090   12.5990 hc        1 7E8      0.039700
     49 H131       11.1300    3.9100   14.0650 hc        1 7E8      0.038700
     50 H132       10.9660    5.5740   13.3860 hc        1 7E8      0.038700
     51 H141       12.1690    5.6060   15.5710 hc        1 7E8      0.032700
     52 H142       13.2660    6.1490   14.2350 hc        1 7E8      0.032700
     53 H143       13.4300    4.4810   14.9160 hc        1 7E8      0.032700
@<TRIPOS>BOND
     1    1    2 1   
     2    1   22 1   
     3    2   21 1   
     4    2   23 1   
     5    2   24 1   
     6    3   21 1   
     7    3   26 1   
     8    4    5 1   
     9    4   21 1   
    10    4   27 1   
    11    4   28 1   
    12    5    6 1   
    13    6    7 2   
    14    6    8 1   
    15    8    9 1   
    16    8   29 1   
    17    8   30 1   
    18    9   10 1   
    19    9   31 1   
    20    9   32 1   
    21   10   11 1   
    22   10   33 1   
    23   10   34 1   
    24   11   12 1   
    25   11   35 1   
    26   11   36 1   
    27   12   13 1   
    28   12   37 1   
    29   12   38 1   
    30   13   14 2   
    31   13   39 1   
    32   14   15 1   
    33   14   40 1   
    34   15   16 1   
    35   15   41 1   
    36   15   42 1   
    37   16   17 1   
    38   16   43 1   
    39   16   44 1   
    40   17   18 1   
    41   17   45 1   
    42   17   46 1   
    43   18   19 1   
    44   18   47 1   
    45   18   48 1   
    46   19   20 1   
    47   19   49 1   
    48   19   50 1   
    49   20   51 1   
    50   20   52 1   
    51   20   53 1   
    52   21   25 1   
@<TRIPOS>SUBSTRUCTURE
     1 7E8         1 TEMP              0 ****  ****    0 ROOT
