@<TRIPOS>MOLECULE
7E8
   53    51     1     0     0
SMALL
bcc


@<TRIPOS>ATOM
      1 O22        -8.5830   -0.9020   -7.0430 oh        1 7E8     -0.339000
      2 C19        -7.4180   -0.1330   -6.6770 c3        1 7E8     -0.058000
      3 O20        -6.5010   -1.9960   -5.4930 oh        1 7E8     -0.327000
      4 C17        -5.6190    0.1430   -4.9570 c3        1 7E8     -0.012000
      5 O16        -5.0810   -0.3620   -3.7070 os        1 7E8     -0.283000
      6 C8         -4.0340    0.4400   -3.1660 c2        1 7E8      0.305000
      7 O15        -3.9820    1.6390   -3.4280 o         1 7E8     -0.352000
      8 C7         -2.9790   -0.1960   -2.2250 c3        1 7E8     -0.156000
      9 C6         -2.4050    0.8780   -1.3010 c3        1 7E8     -0.158000
     10 C5         -1.2930    0.2710   -0.4450 c3        1 7E8     -0.158000
     11 C4         -0.7910    1.3160    0.5600 c3        1 7E8     -0.156000
     12 C3          0.4120    0.7320    1.3640 c3        1 7E8     -0.131000
     13 C2          0.6810    1.6080    2.5870 c2        1 7E8     -0.172000
     14 C1          1.8430    1.4350    3.3230 c1        1 7E8     -0.167000
     15 C9          2.8530    0.3700    2.9120 c2        1 7E8     -0.132000
     16 C10         3.9860    0.2850    3.9840 c3        1 7E8     -0.156000
     17 C11         5.2310   -0.3920    3.3690 c3        1 7E8     -0.158000
     18 C12         6.3030   -0.6290    4.4850 c3        1 7E8     -0.158000
     19 C13         7.5940   -1.2110    3.8490 c3        1 7E8     -0.159000
     20 C14         8.6030   -1.5370    4.9530 c3        1 7E8     -0.211000
     21 C18        -6.8500   -0.6650   -5.3460 c3        1 7E8      0.029000
     22 H22        -8.9320   -0.5770   -7.8340 ho        1 7E8      0.209000
     23 H191       -7.6700    0.8140   -6.5710 h1        1 7E8      0.077000
     24 H192       -6.7300   -0.2150   -7.3880 h1        1 7E8      0.077000
     25 H18        -7.5280   -0.5810   -4.6460 h1        1 7E8      0.109000
     26 H20        -7.1150   -2.5050   -5.1120 ho        1 7E8      0.220000
     27 H171       -4.9430    0.0640   -5.6590 h1        1 7E8      0.107500
     28 H172       -5.8670    1.0780   -4.8490 h1        1 7E8      0.107500
     29 H7         -2.2580   -0.5830   -2.7600 hc        1 7E8      0.118500
     30 H8         -3.4020   -0.9000   -1.6860 hc        1 7E8      0.118500
     31 H61C       -2.0430    1.6060   -1.8350 hc        1 7E8      0.097000
     32 H62C       -3.1150    1.2220   -0.7200 hc        1 7E8      0.097000
     33 H51C       -0.5560   -0.0060   -1.0190 hc        1 7E8      0.080500
     34 H52C       -1.6430   -0.5120    0.0410 hc        1 7E8      0.080500
     35 H41C       -0.5020    2.1190    0.0770 hc        1 7E8      0.084000
     36 H42C       -1.5210    1.5520    1.1820 hc        1 7E8      0.084000
     37 H31C        1.2120    0.7160    0.7920 hc        1 7E8      0.086500
     38 H32C        0.1980   -0.1840    1.6560 hc        1 7E8      0.086500
     39 H2          0.0460    2.2780    2.8450 ha        1 7E8      0.123000
     40 H1          2.0110    1.9820    4.0870 ha        1 7E8      0.123000
     41 H91C        2.4000   -0.5030    2.8420 ha        1 7E8      0.087000
     42 H92C        3.2420    0.6070    2.0440 ha        1 7E8      0.087000
     43 H101        3.6720   -0.2420    4.7500 hc        1 7E8      0.081000
     44 H102        4.2200    1.1870    4.2830 hc        1 7E8      0.081000
     45 H111        4.9740   -1.2520    2.9740 hc        1 7E8      0.079000
     46 H112        5.6050    0.1870    2.6740 hc        1 7E8      0.079000
     47 H121        6.5100    0.2240    4.9250 hc        1 7E8      0.079000
     48 H122        5.9510   -1.2620    5.1490 hc        1 7E8      0.079000
     49 H131        7.9790   -0.5560    3.2390 hc        1 7E8      0.078000
     50 H132        7.3750   -2.0270    3.3560 hc        1 7E8      0.078000
     51 H141        8.7130   -0.7580    5.5340 hc        1 7E8      0.072000
     52 H142        9.4710   -1.7690    4.5480 hc        1 7E8      0.072000
     53 H143        8.2760   -2.2970    5.4830 hc        1 7E8      0.072000
@<TRIPOS>BOND
     1    1    2 1   
     2    1   22 1   
     3    2   21 1   
     4    2   23 1   
     5    2   24 1   
     6    3   21 1   
     7    3   26 1   
     8    4    5 1   
     9    4   21 1   
    10    4   27 1   
    11    4   28 1   
    12    5    6 1   
    13    6    7 1   
    14    6    8 1   
    15    8    9 1   
    16    8   29 1   
    17    8   30 1   
    18    9   10 1   
    19    9   31 1   
    20    9   32 1   
    21   10   11 1   
    22   10   33 1   
    23   10   34 1   
    24   11   12 1   
    25   11   35 1   
    26   11   36 1   
    27   12   13 1   
    28   12   37 1   
    29   12   38 1   
    30   13   14 1   
    31   13   39 1   
    32   14   40 1   
    33   15   16 1   
    34   15   41 1   
    35   15   42 1   
    36   16   17 1   
    37   16   43 1   
    38   16   44 1   
    39   17   18 1   
    40   17   45 1   
    41   17   46 1   
    42   18   19 1   
    43   18   47 1   
    44   18   48 1   
    45   19   20 1   
    46   19   49 1   
    47   19   50 1   
    48   20   51 1   
    49   20   52 1   
    50   20   53 1   
    51   21   25 1   
@<TRIPOS>SUBSTRUCTURE
     1 7E8         1 TEMP              0 ****  ****    0 ROOT
