@<TRIPOS>MOLECULE
7E8
   53    52     1     0     0
SMALL
bcc


@<TRIPOS>ATOM
      1 O22         0.4230    0.7720   -0.3490 oh        1 7E8     -0.611800
      2 C19         1.7500    0.2740   -0.2790 c3        1 7E8      0.092400
      3 O20         1.0380   -1.1400    1.5590 oh        1 7E8     -0.599800
      4 C17         3.3600   -0.7500    1.3570 c3        1 7E8      0.138400
      5 O16         3.9300   -0.1010    2.5050 os        1 7E8     -0.444900
      6 C8          5.1520   -0.5560    2.9210 c         1 7E8      0.634100
      7 O15         5.6980   -1.4440    2.2640 o         1 7E8     -0.541000
      8 C7          5.6250    0.1300    4.1650 c3        1 7E8     -0.127400
      9 C6          7.1280    0.3160    4.1460 c3        1 7E8     -0.079400
     10 C5          7.6150    0.8810    5.4630 c3        1 7E8     -0.079400
     11 C4          9.1140    1.0890    5.4430 c3        1 7E8     -0.077400
     12 C3          9.6040    1.6510    6.7620 c3        1 7E8     -0.048200
     13 C2         11.0700    1.8670    6.7700 c2        1 7E8     -0.176200
     14 C1         11.7350    2.4000    7.8000 c2        1 7E8     -0.171200
     15 C9         11.0880    2.8420    9.0580 c3        1 7E8     -0.049200
     16 C10        12.0910    3.3590   10.0690 c3        1 7E8     -0.077400
     17 C11        11.4030    3.8020   11.3430 c3        1 7E8     -0.079400
     18 C12        12.4020    4.3190   12.3550 c3        1 7E8     -0.079400
     19 C13        11.7160    4.7630   13.6300 c3        1 7E8     -0.080400
     20 C14        12.7080    5.2790   14.6400 c3        1 7E8     -0.093100
     21 C18         1.9690   -0.1380    1.1810 c3        1 7E8      0.140100
     22 H22         0.2400    0.9490   -1.2780 ho        1 7E8      0.410000
     23 H191        1.8680   -0.6130   -0.9570 h1        1 7E8      0.037700
     24 H192        2.4780    1.0740   -0.5720 h1        1 7E8      0.037700
     25 H18         1.8450    0.7610    1.8480 h1        1 7E8      0.069700
     26 H20         0.1590   -0.7780    1.3830 ho        1 7E8      0.421000
     27 H171        4.0190   -0.5530    0.4720 h1        1 7E8      0.068200
     28 H172        3.2970   -1.8540    1.5460 h1        1 7E8      0.068200
     29 H7          5.3220   -0.5130    5.0350 hc        1 7E8      0.079200
     30 H8          5.1060    1.1180    4.2710 hc        1 7E8      0.079200
     31 H61C        7.4110    1.0070    3.3080 hc        1 7E8      0.057700
     32 H62C        7.6240   -0.6700    3.9430 hc        1 7E8      0.057700
     33 H51C        7.1020    1.8580    5.6670 hc        1 7E8      0.041200
     34 H52C        7.3430    0.1820    6.2970 hc        1 7E8      0.041200
     35 H41C        9.6260    0.1120    5.2360 hc        1 7E8      0.044700
     36 H42C        9.3870    1.7890    4.6110 hc        1 7E8      0.044700
     37 H31C        9.0800    2.6240    6.9740 hc        1 7E8      0.047200
     38 H32C        9.3270    0.9480    7.5960 hc        1 7E8      0.047200
     39 H2         11.6090    1.5580    5.8590 ha        1 7E8      0.123000
     40 H1         12.8280    2.5340    7.7460 ha        1 7E8      0.123000
     41 H91C       10.3380    3.6480    8.8270 hc        1 7E8      0.047700
     42 H92C       10.5120    1.9850    9.5040 hc        1 7E8      0.047700
     43 H101       12.8370    2.5550   10.3040 hc        1 7E8      0.041700
     44 H102       12.6600    4.2200    9.6290 hc        1 7E8      0.041700
     45 H111       10.6560    4.6060   11.1070 hc        1 7E8      0.039700
     46 H112       10.8340    2.9410   11.7830 hc        1 7E8      0.039700
     47 H121       13.1490    3.5160   12.5910 hc        1 7E8      0.039700
     48 H122       12.9720    5.1810   11.9160 hc        1 7E8      0.039700
     49 H131       10.9690    5.5650   13.3910 hc        1 7E8      0.038700
     50 H132       11.1460    3.9010   14.0660 hc        1 7E8      0.038700
     51 H141       13.4470    4.4850   14.9090 hc        1 7E8      0.032700
     52 H142       12.1810    5.6000   15.5710 hc        1 7E8      0.032700
     53 H143       13.2680    6.1540   14.2320 hc        1 7E8      0.032700
@<TRIPOS>BOND
     1    1    2 1   
     2    1   22 1   
     3    2   21 1   
     4    2   23 1   
     5    2   24 1   
     6    3   21 1   
     7    3   26 1   
     8    4    5 1   
     9    4   21 1   
    10    4   27 1   
    11    4   28 1   
    12    5    6 1   
    13    6    7 2   
    14    6    8 1   
    15    8    9 1   
    16    8   29 1   
    17    8   30 1   
    18    9   10 1   
    19    9   31 1   
    20    9   32 1   
    21   10   11 1   
    22   10   33 1   
    23   10   34 1   
    24   11   12 1   
    25   11   35 1   
    26   11   36 1   
    27   12   13 1   
    28   12   37 1   
    29   12   38 1   
    30   13   14 2   
    31   13   39 1   
    32   14   15 1   
    33   14   40 1   
    34   15   16 1   
    35   15   41 1   
    36   15   42 1   
    37   16   17 1   
    38   16   43 1   
    39   16   44 1   
    40   17   18 1   
    41   17   45 1   
    42   17   46 1   
    43   18   19 1   
    44   18   47 1   
    45   18   48 1   
    46   19   20 1   
    47   19   49 1   
    48   19   50 1   
    49   20   51 1   
    50   20   52 1   
    51   20   53 1   
    52   21   25 1   
@<TRIPOS>SUBSTRUCTURE
     1 7E8         1 TEMP              0 ****  ****    0 ROOT
