@<TRIPOS>MOLECULE
7E9
   53    52     1     0     0
SMALL
bcc


@<TRIPOS>ATOM
      1 O21        -0.5630   -0.1310    0.6080 oh        1 7E9     -0.601300
      2 C20         0.6090   -0.0110   -0.1640 c3        1 7E9      0.122400
      3 O19         2.6420   -2.3520    0.0310 o         1 7E9     -0.541000
      4 C17         1.9570    1.3710    1.5060 c3        1 7E9      0.122400
      5 O2          0.8960    1.4760    2.4310 oh        1 7E9     -0.601300
      6 O1          1.9250   -0.9790    1.6440 os        1 7E9     -0.449900
      7 C14         3.1830  -14.3280   10.2150 c3        1 7E9     -0.093100
      8 C13         2.8750  -13.0420    9.4930 c3        1 7E9     -0.080400
      9 C12         3.8650  -12.7800    8.3790 c3        1 7E9     -0.079400
     10 C11         3.5520  -11.4870    7.6570 c3        1 7E9     -0.079400
     11 C10         4.5430  -11.2260    6.5430 c3        1 7E9     -0.077400
     12 C80         2.2990   -2.2230    1.2070 c         1 7E9      0.644100
     13 C9          4.2280   -9.9320    5.8220 c3        1 7E9     -0.049200
     14 C15         1.8820    0.0850    0.6780 c3        1 7E9      0.067100
     15 C8          5.1830   -9.6520    4.7240 c2        1 7E9     -0.171200
     16 C7          5.0980   -8.5890    3.9180 c2        1 7E9     -0.176200
     17 C6          4.0350   -7.5620    4.0220 c3        1 7E9     -0.048200
     18 C5          4.2160   -6.4440    3.0150 c3        1 7E9     -0.077400
     19 C4          3.1190   -5.4090    3.1470 c3        1 7E9     -0.079400
     20 C3          3.2990   -4.2960    2.1370 c3        1 7E9     -0.079400
     21 C2          2.2110   -3.2540    2.2880 c3        1 7E9     -0.126400
     22 H21        -0.6270    0.6560    1.1690 ho        1 7E9      0.418000
     23 H201        0.6390   -0.9490   -0.7840 h1        1 7E9      0.058200
     24 H202        0.5520    0.8890   -0.8330 h1        1 7E9      0.058200
     25 H15         2.7770    0.0130   -0.0000 h1        1 7E9      0.081700
     26 H171        2.9420    1.4160    2.0430 h1        1 7E9      0.058200
     27 H172        1.8460    2.2610    0.8300 h1        1 7E9      0.058200
     28 H2          0.9300    0.6920    2.9950 ho        1 7E9      0.418000
     29 H21C        1.1970   -3.7320    2.2090 hc        1 7E9      0.080700
     30 H22C        2.2770   -2.7570    3.2920 hc        1 7E9      0.080700
     31 H31C        4.3030   -3.8150    2.2770 hc        1 7E9      0.057700
     32 H32C        3.2750   -4.7140    1.0960 hc        1 7E9      0.057700
     33 H41C        3.1270   -4.9830    4.1850 hc        1 7E9      0.041700
     34 H42C        2.1200   -5.8980    2.9960 hc        1 7E9      0.041700
     35 H51C        5.2150   -5.9570    3.1690 hc        1 7E9      0.044700
     36 H52C        4.2100   -6.8680    1.9760 hc        1 7E9      0.044700
     37 H61C        4.0280   -7.1330    5.0620 hc        1 7E9      0.047700
     38 H62C        3.0310   -8.0470    3.8680 hc        1 7E9      0.047700
     39 H7          5.8400   -8.4350    3.1180 ha        1 7E9      0.123000
     40 H8          5.9980  -10.3830    4.5950 ha        1 7E9      0.123000
     41 H91         4.2450   -9.0790    6.5560 hc        1 7E9      0.047700
     42 H92         3.1840   -9.9770    5.4070 hc        1 7E9      0.047700
     43 HA1         5.5810  -11.1780    6.9660 hc        1 7E9      0.041700
     44 HB2         4.5220  -12.0780    5.8130 hc        1 7E9      0.041700
     45 HB1         2.5140  -11.5340    7.2340 hc        1 7E9      0.039700
     46 HC2         3.5730  -10.6340    8.3860 hc        1 7E9      0.039700
     47 HC1         4.9030  -12.7320    8.8020 hc        1 7E9      0.039700
     48 HD2         3.8440  -13.6320    7.6500 hc        1 7E9      0.039700
     49 HD1         1.8380  -13.0870    9.0690 hc        1 7E9      0.038700
     50 HE2         2.8970  -12.1870   10.2210 hc        1 7E9      0.038700
     51 HE1         4.2040  -14.2930   10.6670 hc        1 7E9      0.032700
     52 HF2         3.1420  -15.1950    9.5110 hc        1 7E9      0.032700
     53 HG3         2.4420  -14.5020   11.0320 hc        1 7E9      0.032700
@<TRIPOS>BOND
     1    1    2 1   
     2    1   22 1   
     3    2   14 1   
     4    2   23 1   
     5    2   24 1   
     6    3   12 2   
     7    4    5 1   
     8    4   14 1   
     9    4   26 1   
    10    4   27 1   
    11    5   28 1   
    12    6   12 1   
    13    6   14 1   
    14    7    8 1   
    15    7   51 1   
    16    7   52 1   
    17    7   53 1   
    18    8    9 1   
    19    8   49 1   
    20    8   50 1   
    21    9   10 1   
    22    9   47 1   
    23    9   48 1   
    24   10   11 1   
    25   10   45 1   
    26   10   46 1   
    27   11   13 1   
    28   11   43 1   
    29   11   44 1   
    30   12   21 1   
    31   13   15 1   
    32   13   41 1   
    33   13   42 1   
    34   14   25 1   
    35   15   16 2   
    36   15   40 1   
    37   16   17 1   
    38   16   39 1   
    39   17   18 1   
    40   17   37 1   
    41   17   38 1   
    42   18   19 1   
    43   18   35 1   
    44   18   36 1   
    45   19   20 1   
    46   19   33 1   
    47   19   34 1   
    48   20   21 1   
    49   20   31 1   
    50   20   32 1   
    51   21   29 1   
    52   21   30 1   
@<TRIPOS>SUBSTRUCTURE
     1 7E9         1 TEMP              0 ****  ****    0 ROOT
