@<TRIPOS>MOLECULE
7E9
   53    51     1     0     0
SMALL
bcc


@<TRIPOS>ATOM
      1 O21         0.0040    5.6970   -7.5620 oh        1 7E9     -0.328000
      2 C20        -0.8520    5.1190   -6.6000 c3        1 7E9     -0.030000
      3 O19         1.2080    3.6230   -4.0250 o         1 7E9     -0.352000
      4 C17        -0.6310    6.7950   -4.7980 c3        1 7E9     -0.030000
      5 O2          0.2430    7.6920   -5.4470 oh        1 7E9     -0.328000
      6 O1         -0.8790    4.4750   -4.3040 os        1 7E9     -0.275000
      7 C14        -0.9000   -5.5480    7.9180 c3        1 7E9     -0.211000
      8 C13        -0.7720   -4.3810    6.9640 c3        1 7E9     -0.159000
      9 C12        -0.2960   -4.8800    5.6170 c3        1 7E9     -0.158000
     10 C11        -0.1900   -3.7160    4.6570 c3        1 7E9     -0.158000
     11 C10         0.4110   -4.1910    3.3530 c3        1 7E9     -0.156000
     12 C80         0.0550    3.6570   -3.6450 c2        1 7E9      0.307000
     13 C9          0.4220   -3.0520    2.3570 c3        1 7E9     -0.132000
     14 C15        -0.3010    5.3780   -5.2150 c3        1 7E9     -0.043000
     15 C8          1.1930   -3.4680    1.1240 c2        1 7E9     -0.166000
     16 C7          1.3090   -2.6200    0.0850 c1        1 7E9     -0.172000
     17 C6          0.6680   -1.2510    0.1500 c2        1 7E9     -0.131000
     18 C5          0.9720   -0.4910   -1.1210 c3        1 7E9     -0.156000
     19 C4          0.1310    0.7660   -1.1700 c3        1 7E9     -0.158000
     20 C3          0.4930    1.5670   -2.4020 c3        1 7E9     -0.158000
     21 C2         -0.3830    2.7970   -2.4790 c3        1 7E9     -0.155000
     22 H21        -0.3770    5.6490   -8.3640 ho        1 7E9      0.213500
     23 H201       -0.9100    4.1540   -6.7530 h1        1 7E9      0.098750
     24 H202       -1.7440    5.5160   -6.6770 h1        1 7E9      0.098750
     25 H15         0.6690    5.2580   -5.2230 h1        1 7E9      0.121000
     26 H171       -1.5550    7.0020   -5.0470 h1        1 7E9      0.098750
     27 H172       -0.5270    6.8820   -3.8280 h1        1 7E9      0.098750
     28 H2          0.1080    8.5150   -5.1370 ho        1 7E9      0.213500
     29 H21C       -1.3150    2.5270   -2.6050 hc        1 7E9      0.119000
     30 H22C       -0.3020    3.3080   -1.6490 hc        1 7E9      0.119000
     31 H31C        1.4320    1.8380   -2.3500 hc        1 7E9      0.098500
     32 H32C        0.3560    1.0190   -3.2000 hc        1 7E9      0.098500
     33 H41C        0.3000    1.3030   -0.3700 hc        1 7E9      0.081000
     34 H42C       -0.8160    0.5230   -1.2060 hc        1 7E9      0.081000
     35 H51C        0.7640   -1.0520   -1.8940 hc        1 7E9      0.084500
     36 H52C        1.9200   -0.2490   -1.1380 hc        1 7E9      0.084500
     37 H61C       -0.3000   -1.3490    0.2480 ha        1 7E9      0.087000
     38 H62C        1.0260   -0.7600    0.9170 ha        1 7E9      0.087000
     39 H7          1.8060   -2.8880   -0.7110 ha        1 7E9      0.123000
     40 H8          1.6060   -4.3510    1.0820 ha        1 7E9      0.123000
     41 H91         0.8500   -2.2710    2.7610 hc        1 7E9      0.086500
     42 H92        -0.4970   -2.8290    2.1080 hc        1 7E9      0.086500
     43 HA1         1.3270   -4.4970    3.5080 hc        1 7E9      0.081000
     44 HB2        -0.1230   -4.9300    2.9970 hc        1 7E9      0.081000
     45 HB1        -1.0810   -3.3480    4.4900 hc        1 7E9      0.079000
     46 HC2         0.3810   -3.0230    5.0460 hc        1 7E9      0.079000
     47 HC1         0.5810   -5.3010    5.7170 hc        1 7E9      0.079000
     48 HD2        -0.9350   -5.5330    5.2680 hc        1 7E9      0.079000
     49 HD1        -1.6420   -3.9460    6.8620 hc        1 7E9      0.078000
     50 HE2        -0.1260   -3.7380    7.3200 hc        1 7E9      0.078000
     51 HE1        -0.0240   -5.9730    8.0340 hc        1 7E9      0.072000
     52 HF2        -1.5340   -6.2000    7.5530 hc        1 7E9      0.072000
     53 HG3        -1.2250   -5.2270    8.7850 hc        1 7E9      0.072000
@<TRIPOS>BOND
     1    1    2 1   
     2    1   22 1   
     3    2   14 1   
     4    2   23 1   
     5    2   24 1   
     6    3   12 1   
     7    4    5 1   
     8    4   14 1   
     9    4   26 1   
    10    4   27 1   
    11    5   28 1   
    12    6   12 1   
    13    6   14 1   
    14    7    8 1   
    15    7   51 1   
    16    7   52 1   
    17    7   53 1   
    18    8    9 1   
    19    8   49 1   
    20    8   50 1   
    21    9   10 1   
    22    9   47 1   
    23    9   48 1   
    24   10   11 1   
    25   10   45 1   
    26   10   46 1   
    27   11   13 1   
    28   11   43 1   
    29   11   44 1   
    30   12   21 1   
    31   13   15 1   
    32   13   41 1   
    33   13   42 1   
    34   14   25 1   
    35   15   16 1   
    36   15   40 1   
    37   16   39 1   
    38   17   18 1   
    39   17   37 1   
    40   17   38 1   
    41   18   19 1   
    42   18   35 1   
    43   18   36 1   
    44   19   20 1   
    45   19   33 1   
    46   19   34 1   
    47   20   21 1   
    48   20   31 1   
    49   20   32 1   
    50   21   29 1   
    51   21   30 1   
@<TRIPOS>SUBSTRUCTURE
     1 7E9         1 TEMP              0 ****  ****    0 ROOT
