@<TRIPOS>MOLECULE
7E9
   53    52     1     0     0
SMALL
bcc


@<TRIPOS>ATOM
      1 O21        -0.5640   -0.1590    0.5580 oh        1 7E9     -0.601300
      2 C20         0.6210   -0.0230   -0.1900 c3        1 7E9      0.122400
      3 O19         2.6750   -2.3440    0.0340 o         1 7E9     -0.541000
      4 C17         1.9230    1.3660    1.5100 c3        1 7E9      0.122400
      5 O2          0.8420    1.4550    2.4160 oh        1 7E9     -0.601300
      6 O1          1.9120   -0.9850    1.6390 os        1 7E9     -0.449900
      7 C14         3.1720  -14.3310   10.2100 c3        1 7E9     -0.093100
      8 C13         2.8650  -13.0450    9.4880 c3        1 7E9     -0.080400
      9 C12         3.8640  -12.7760    8.3830 c3        1 7E9     -0.079400
     10 C11         3.5520  -11.4830    7.6600 c3        1 7E9     -0.079400
     11 C10         4.5520  -11.2170    6.5560 c3        1 7E9     -0.077400
     12 C80         2.3080   -2.2240    1.2040 c         1 7E9      0.644100
     13 C9          4.2380   -9.9220    5.8350 c3        1 7E9     -0.049200
     14 C15         1.8770    0.0830    0.6770 c3        1 7E9      0.067100
     15 C8          5.2020   -9.6370    4.7460 c2        1 7E9     -0.171200
     16 C7          5.1150   -8.5760    3.9360 c2        1 7E9     -0.176200
     17 C6          4.0420   -7.5580    4.0270 c3        1 7E9     -0.048200
     18 C5          4.2300   -6.4360    3.0270 c3        1 7E9     -0.077400
     19 C4          3.1220   -5.4100    3.1450 c3        1 7E9     -0.079400
     20 C3          3.3100   -4.2920    2.1430 c3        1 7E9     -0.079400
     21 C2          2.2100   -3.2600    2.2790 c3        1 7E9     -0.126400
     22 H21        -0.6470    0.6240    1.1200 ho        1 7E9      0.418000
     23 H201        0.6740   -0.9580   -0.8140 h1        1 7E9      0.058200
     24 H202        0.5680    0.8790   -0.8560 h1        1 7E9      0.058200
     25 H15         2.7860    0.0220    0.0150 h1        1 7E9      0.081700
     26 H171        2.8960    1.4190    2.0670 h1        1 7E9      0.058200
     27 H172        1.8150    2.2570    0.8370 h1        1 7E9      0.058200
     28 H2          0.8740    0.6690    2.9770 ho        1 7E9      0.418000
     29 H21C        1.2010   -3.7470    2.1790 hc        1 7E9      0.080700
     30 H22C        2.2530   -2.7670    3.2850 hc        1 7E9      0.080700
     31 H31C        4.3070   -3.8030    2.3020 hc        1 7E9      0.057700
     32 H32C        3.3070   -4.7050    1.0990 hc        1 7E9      0.057700
     33 H41C        3.1090   -4.9880    4.1840 hc        1 7E9      0.041700
     34 H42C        2.1300   -5.9070    2.9750 hc        1 7E9      0.041700
     35 H51C        5.2220   -5.9410    3.1990 hc        1 7E9      0.044700
     36 H52C        4.2450   -6.8560    1.9870 hc        1 7E9      0.044700
     37 H61C        4.0140   -7.1340    5.0680 hc        1 7E9      0.047700
     38 H62C        3.0450   -8.0520    3.8540 hc        1 7E9      0.047700
     39 H7          5.8650   -8.4180    3.1440 ha        1 7E9      0.123000
     40 H8          6.0250  -10.3610    4.6270 ha        1 7E9      0.123000
     41 H91         4.2450   -9.0710    6.5700 hc        1 7E9      0.047700
     42 H92         3.1980   -9.9720    5.4100 hc        1 7E9      0.047700
     43 HA1         5.5860  -11.1650    6.9880 hc        1 7E9      0.041700
     44 HB2         4.5410  -12.0670    5.8240 hc        1 7E9      0.041700
     45 HB1         2.5180  -11.5340    7.2280 hc        1 7E9      0.039700
     46 HC2         3.5630  -10.6320    8.3910 hc        1 7E9      0.039700
     47 HC1         4.8980  -12.7250    8.8160 hc        1 7E9      0.039700
     48 HD2         3.8540  -13.6280    7.6520 hc        1 7E9      0.039700
     49 HD1         1.8320  -13.0940    9.0530 hc        1 7E9      0.038700
     50 HE2         2.8760  -12.1910   10.2170 hc        1 7E9      0.038700
     51 HE1         4.1890  -14.2920   10.6720 hc        1 7E9      0.032700
     52 HF2         3.1420  -15.1970    9.5050 hc        1 7E9      0.032700
     53 HG3         2.4240  -14.5100   11.0200 hc        1 7E9      0.032700
@<TRIPOS>BOND
     1    1    2 1   
     2    1   22 1   
     3    2   14 1   
     4    2   23 1   
     5    2   24 1   
     6    3   12 2   
     7    4    5 1   
     8    4   14 1   
     9    4   26 1   
    10    4   27 1   
    11    5   28 1   
    12    6   12 1   
    13    6   14 1   
    14    7    8 1   
    15    7   51 1   
    16    7   52 1   
    17    7   53 1   
    18    8    9 1   
    19    8   49 1   
    20    8   50 1   
    21    9   10 1   
    22    9   47 1   
    23    9   48 1   
    24   10   11 1   
    25   10   45 1   
    26   10   46 1   
    27   11   13 1   
    28   11   43 1   
    29   11   44 1   
    30   12   21 1   
    31   13   15 1   
    32   13   41 1   
    33   13   42 1   
    34   14   25 1   
    35   15   16 2   
    36   15   40 1   
    37   16   17 1   
    38   16   39 1   
    39   17   18 1   
    40   17   37 1   
    41   17   38 1   
    42   18   19 1   
    43   18   35 1   
    44   18   36 1   
    45   19   20 1   
    46   19   33 1   
    47   19   34 1   
    48   20   21 1   
    49   20   31 1   
    50   20   32 1   
    51   21   29 1   
    52   21   30 1   
@<TRIPOS>SUBSTRUCTURE
     1 7E9         1 TEMP              0 ****  ****    0 ROOT
