@<TRIPOS>MOLECULE
7E9
   53    52     1     0     0
SMALL
bcc


@<TRIPOS>ATOM
      1 O21         6.9320   -1.2060    1.7010 oh        1 7E9     -0.601300
      2 C20         7.1660    0.0590    1.1260 c3        1 7E9      0.122400
      3 O19         4.6580    1.7880    0.5110 o         1 7E9     -0.541000
      4 C17         7.2980   -0.7100   -1.3050 c3        1 7E9      0.122400
      5 O2          7.1630   -2.0790   -0.9850 oh        1 7E9     -0.601300
      6 O1          5.2200   -0.2130   -0.3160 os        1 7E9     -0.449900
      7 C14       -10.5410   -2.2620    0.5000 c3        1 7E9     -0.093100
      8 C13        -9.0340   -2.2560    0.5170 c3        1 7E9     -0.080400
      9 C12        -8.4800   -0.8890    0.1760 c3        1 7E9     -0.079400
     10 C11        -6.9670   -0.8880    0.1940 c3        1 7E9     -0.079400
     11 C10        -6.4150    0.4800   -0.1460 c3        1 7E9     -0.077400
     12 C80         4.2830    0.6700    0.1540 c         1 7E9      0.644100
     13 C9         -4.9000    0.4780   -0.1280 c3        1 7E9     -0.049200
     14 C15         6.5980    0.1960   -0.2880 c3        1 7E9      0.067100
     15 C8         -4.3320    1.8060   -0.4570 c2        1 7E9     -0.171200
     16 C7         -3.0210    2.0700   -0.4770 c2        1 7E9     -0.176200
     17 C6         -1.9760    1.0650   -0.1690 c3        1 7E9     -0.048200
     18 C5         -0.5780    1.6280   -0.3160 c3        1 7E9     -0.077400
     19 C4          0.4680    0.5800    0.0010 c3        1 7E9     -0.079400
     20 C3          1.8640    1.1460   -0.1420 c3        1 7E9     -0.079400
     21 C2          2.9050    0.0870    0.1560 c3        1 7E9     -0.126400
     22 H21         7.3560   -1.8680    1.1370 ho        1 7E9      0.418000
     23 H201        6.6460    0.7840    1.8110 h1        1 7E9      0.058200
     24 H202        8.2660    0.2810    1.0940 h1        1 7E9      0.058200
     25 H15         6.6780    1.2700   -0.6130 h1        1 7E9      0.081700
     26 H171        8.4030   -0.5130   -1.2870 h1        1 7E9      0.058200
     27 H172        6.8880   -0.5120   -2.3300 h1        1 7E9      0.058200
     28 H2          6.2160   -2.2690   -0.9370 ho        1 7E9      0.418000
     29 H21C        2.8460   -0.7470   -0.5920 hc        1 7E9      0.080700
     30 H22C        2.7340   -0.3550    1.1750 hc        1 7E9      0.080700
     31 H31C        2.0110    1.5360   -1.1830 hc        1 7E9      0.057700
     32 H32C        2.0020    2.0120    0.5580 hc        1 7E9      0.057700
     33 H41C        0.3180    0.2030    1.0470 hc        1 7E9      0.041700
     34 H42C        0.3430   -0.2970   -0.6890 hc        1 7E9      0.041700
     35 H51C       -0.4310    2.0030   -1.3630 hc        1 7E9      0.044700
     36 H52C       -0.4510    2.5050    0.3720 hc        1 7E9      0.044700
     37 H61C       -2.1210    0.6860    0.8800 hc        1 7E9      0.047700
     38 H62C       -2.0980    0.1770   -0.8500 hc        1 7E9      0.047700
     39 H7         -2.6600    3.0800   -0.7300 ha        1 7E9      0.123000
     40 H8         -5.0610    2.5980   -0.6940 ha        1 7E9      0.123000
     41 H91        -4.5370    0.1570    0.8870 hc        1 7E9      0.047700
     42 H92        -4.5160   -0.2840   -0.8620 hc        1 7E9      0.047700
     43 HA1        -6.7780    0.7910   -1.1610 hc        1 7E9      0.041700
     44 HB2        -6.7990    1.2340    0.5890 hc        1 7E9      0.041700
     45 HB1        -6.6030   -1.1990    1.2090 hc        1 7E9      0.039700
     46 HC2        -6.5810   -1.6430   -0.5410 hc        1 7E9      0.039700
     47 HC1        -8.8450   -0.5780   -0.8380 hc        1 7E9      0.039700
     48 HD2        -8.8660   -0.1340    0.9110 hc        1 7E9      0.039700
     49 HD1        -8.6680   -2.5660    1.5310 hc        1 7E9      0.038700
     50 HE2        -8.6460   -3.0100   -0.2180 hc        1 7E9      0.038700
     51 HE1       -10.9280   -3.2780    0.7530 hc        1 7E9      0.032700
     52 HF2       -10.9470   -1.5340    1.2440 hc        1 7E9      0.032700
     53 HG3       -10.9250   -1.9800   -0.5100 hc        1 7E9      0.032700
@<TRIPOS>BOND
     1    1    2 1   
     2    1   22 1   
     3    2   14 1   
     4    2   23 1   
     5    2   24 1   
     6    3   12 2   
     7    4    5 1   
     8    4   14 1   
     9    4   26 1   
    10    4   27 1   
    11    5   28 1   
    12    6   12 1   
    13    6   14 1   
    14    7    8 1   
    15    7   51 1   
    16    7   52 1   
    17    7   53 1   
    18    8    9 1   
    19    8   49 1   
    20    8   50 1   
    21    9   10 1   
    22    9   47 1   
    23    9   48 1   
    24   10   11 1   
    25   10   45 1   
    26   10   46 1   
    27   11   13 1   
    28   11   43 1   
    29   11   44 1   
    30   12   21 1   
    31   13   15 1   
    32   13   41 1   
    33   13   42 1   
    34   14   25 1   
    35   15   16 2   
    36   15   40 1   
    37   16   17 1   
    38   16   39 1   
    39   17   18 1   
    40   17   37 1   
    41   17   38 1   
    42   18   19 1   
    43   18   35 1   
    44   18   36 1   
    45   19   20 1   
    46   19   33 1   
    47   19   34 1   
    48   20   21 1   
    49   20   31 1   
    50   20   32 1   
    51   21   29 1   
    52   21   30 1   
@<TRIPOS>SUBSTRUCTURE
     1 7E9         1 TEMP              0 ****  ****    0 ROOT
