@<TRIPOS>MOLECULE
7EP
   47    45     1     0     0
SMALL
bcc


@<TRIPOS>ATOM
      1 C          -1.1230   -0.4950    0.3310 c2        1 7EP      0.187000
      2 N           0.8130    0.7670   -0.6040 n         1 7EP     -0.338000
      3 O          -1.9380    0.3850    0.0650 o         1 7EP     -0.289000
      4 CA          0.3540   -0.4780   -0.0470 c3        1 7EP     -0.007000
      5 CB          1.1470   -0.9070    1.1870 c2        1 7EP     -0.111000
      6 CAA         0.0800    2.1110   -5.4940 c1        1 7EP     -0.012000
      7 CAB         4.1900    3.1210    0.1870 c3        1 7EP     -0.120000
      8 CAJ         2.7570    4.6500   -3.4990 c1        1 7EP     -0.123000
      9 CAK         1.7680    3.9120   -4.1490 c2        1 7EP     -0.293000
     10 CAL         3.2760    4.1790   -2.2190 c3        1 7EP     -0.217000
     11 NAN         1.1300   -0.2140    2.2650 n2        1 7EP     -0.146000
     12 SAQ         4.8010    2.1990    3.3740 sh        1 7EP     -0.222000
     13 CAR         2.3180   -2.0950    3.4990 c2        1 7EP      0.234000
     14 CAS         1.2260    0.8720   -1.9140 c2        1 7EP      0.376000
     15 CAT         1.2860    2.7370   -3.6030 c2        1 7EP      0.241000
     16 CAU         2.7190    2.9070   -1.6740 c2        1 7EP      0.148000
     17 CAV         1.7540    2.1940   -2.3600 c2        1 7EP     -0.258000
     18 CAY         1.8280   -0.6270    3.4510 c3        1 7EP     -0.025000
     19 CAZ         3.1310    0.0900    3.7580 c2        1 7EP     -0.497000
     20 H          -1.4150   -1.4200    0.8790 h4        1 7EP      0.095000
     21 HN          1.0030    1.5060    0.0340 hn        1 7EP      0.250000
     22 HA          0.4840   -1.2880   -0.8350 h1        1 7EP      0.147000
     23 HB          3.0790    1.8560    4.9570 h1        1 7EP      0.075000
     24 HAA        -0.9270    4.2200   -5.5410 ha        1 7EP      0.002000
     25 HAAA       -0.8090    1.4730   -5.7450 ha        1 7EP      0.038000
     26 HAAB       -1.5160    3.8820   -5.5490 ha        1 7EP      0.002000
     27 HAB         4.3200    2.5400    1.1570 h1        1 7EP      0.113667
     28 HABA        5.1240    3.1060   -0.4230 h1        1 7EP      0.113667
     29 HABB        3.8700    4.1690    0.4020 h1        1 7EP      0.113667
     30 HAC         2.4450    2.0590    3.2700 h1        1 7EP      0.075000
     31 HACA        3.3650    4.8990    2.6800 ha        1 7EP      0.002000
     32 HACB        3.6050    4.2800    2.8230 ha        1 7EP      0.002000
     33 HAD         5.5430    1.0830    3.4650 hs        1 7EP      0.122000
     34 HADA        7.1680   -0.8840    3.5890 ha        1 7EP      0.002000
     35 HADB        6.5040   -0.9670    3.7200 ha        1 7EP      0.002000
     36 HAJ         4.3960    4.0710   -2.3300 hc        1 7EP      0.164500
     37 HAK         1.3750    4.2590   -5.1190 ha        1 7EP      0.171000
     38 HAL         3.1070    5.0070   -1.4660 hc        1 7EP      0.164500
     39 HNAN        1.6980   -1.8610    1.0440 h4        1 7EP      0.130000
     40 HAY         1.0960   -0.4770    4.2980 h1        1 7EP      0.118000
     41 CAC         3.2060    1.5300    3.8940 c3        1 7EP     -0.046000
     42 CAD         4.1460   -0.8260    3.9680 c1        1 7EP     -0.122000
     43 OAP         3.1510    2.4070   -0.4870 os        1 7EP     -0.178000
     44 OAO         0.2330    2.0130   -4.1810 os        1 7EP     -0.136000
     45 OAF         3.6630   -2.1200    3.8130 os        1 7EP     -0.198000
     46 OAG         1.1290   -0.0840   -2.7140 o         1 7EP     -0.385000
     47 OAH         1.7240   -3.1560    3.3200 o         1 7EP     -0.366000
@<TRIPOS>BOND
     1    1    3 1   
     2    1    4 1   
     3    1   20 1   
     4    2    4 1   
     5    2   14 1   
     6    2   21 1   
     7    4    5 1   
     8    4   22 1   
     9    5   11 1   
    10    5   39 1   
    11    6   25 1   
    12    6   44 1   
    13    7   27 1   
    14    7   28 1   
    15    7   29 1   
    16    7   43 1   
    17    8    9 1   
    18    8   10 1   
    19    9   15 1   
    20    9   37 1   
    21   10   16 1   
    22   10   36 1   
    23   10   38 1   
    24   11   18 1   
    25   12   33 1   
    26   12   41 1   
    27   13   18 1   
    28   13   45 1   
    29   13   47 1   
    30   14   17 1   
    31   14   46 1   
    32   15   17 1   
    33   15   44 1   
    34   16   17 1   
    35   16   43 1   
    36   18   19 1   
    37   18   40 1   
    38   19   41 1   
    39   19   42 1   
    40   23   41 1   
    41   24   26 1   
    42   30   41 1   
    43   31   32 1   
    44   34   35 1   
    45   42   45 1   
@<TRIPOS>SUBSTRUCTURE
     1 7EP         1 TEMP              0 ****  ****    0 ROOT
