@<TRIPOS>MOLECULE
7EP
   47    48     1     0     0
SMALL
bcc


@<TRIPOS>ATOM
      1 C          -1.1470    2.8480   -0.4410 c         1 7EP      0.580900
      2 N           0.8280    1.3870   -0.0380 n         1 7EP     -0.511900
      3 O          -0.6480    3.8290    0.1050 o         1 7EP     -0.531100
      4 CA         -0.4430    1.5240   -0.7130 c3        1 7EP     -0.017300
      5 CB         -1.4080    0.3690   -0.3490 c3        1 7EP      0.274600
      6 CAA         5.8580    2.5530   -0.2740 c3        1 7EP      0.103200
      7 CAB         1.0820   -2.7140    0.7930 c3        1 7EP      0.103200
      8 CAJ         4.9810   -1.1990    1.3610 ca        1 7EP     -0.050000
      9 CAK         5.2970    0.0620    0.8630 ca        1 7EP     -0.256000
     10 CAL         3.7030   -1.7300    1.2200 ca        1 7EP     -0.256000
     11 NAN        -2.4050    0.0390   -1.3360 n3        1 7EP     -0.741200
     12 SAQ        -2.3060    0.8210    1.2140 ss        1 7EP     -0.529200
     13 CAR        -3.1560   -2.2350   -0.5340 c         1 7EP      0.946600
     14 CAS         1.9660    1.0220   -0.7510 c         1 7EP      0.700700
     15 CAT         4.3110    0.8060    0.1960 ca        1 7EP      0.195100
     16 CAU         2.7180   -0.9800    0.5590 ca        1 7EP      0.195100
     17 CAV         3.0140    0.2940    0.0240 ca        1 7EP     -0.210600
     18 CAY        -3.4800   -0.7020   -0.6800 c3        1 7EP      0.022500
     19 CAZ        -3.8110   -0.0760    0.7090 c3        1 7EP      0.080100
     20 H          -2.1890    2.8730   -0.8380 h4        1 7EP     -0.006800
     21 HN          0.7620    1.0410    0.8960 hn        1 7EP      0.312500
     22 HA         -0.2460    1.5010   -1.8340 h1        1 7EP      0.112700
     23 HB         -0.8530   -0.5920   -0.1220 h2        1 7EP      0.153700
     24 HAA         5.7880    3.5420   -0.7970 h1        1 7EP      0.055367
     25 HAAA        6.2030    2.6890    0.7800 h1        1 7EP      0.055367
     26 HAAB        6.5420    1.8630   -0.8250 h1        1 7EP      0.055367
     27 HAB         1.7100   -3.4650    0.2560 h1        1 7EP      0.055367
     28 HABA        1.2030   -2.8190    1.8980 h1        1 7EP      0.055367
     29 HABB       -0.0030   -2.7930    0.4900 h1        1 7EP      0.055367
     30 HAC        -5.0820    1.4690    1.5560 hc        1 7EP      0.041033
     31 HACA       -4.6940    1.6880   -0.2020 hc        1 7EP      0.041033
     32 HACB       -5.8810    0.4160    0.3150 hc        1 7EP      0.041033
     33 HAD        -4.9550   -1.7910    1.3430 hc        1 7EP      0.041033
     34 HADA       -3.2460   -1.7640    1.9390 hc        1 7EP      0.041033
     35 HADB       -4.4830   -0.6540    2.6880 hc        1 7EP      0.041033
     36 HAJ         5.7550   -1.7850    1.8790 ha        1 7EP      0.124000
     37 HAK         6.3110    0.4620    0.9950 ha        1 7EP      0.137500
     38 HAL         3.4670   -2.7240    1.6210 ha        1 7EP      0.137500
     39 HNAN       -2.7750    0.8760   -1.7560 hn        1 7EP      0.325800
     40 HAY        -4.3980   -0.6380   -1.3320 h1        1 7EP      0.066700
     41 CAC        -4.9280    0.9330    0.5880 c3        1 7EP     -0.081600
     42 CAD        -4.1430   -1.1270    1.7360 c3        1 7EP     -0.081600
     43 OAP         1.4230   -1.3930    0.3820 os        1 7EP     -0.308900
     44 OAO         4.5190    2.0750   -0.3040 os        1 7EP     -0.308900
     45 OAF        -4.0860   -3.0140   -0.8710 o         1 7EP     -0.831800
     46 OAG         2.1120    1.3070   -1.9540 o         1 7EP     -0.593100
     47 OAH        -2.0340   -2.5950   -0.0860 o         1 7EP     -0.831800
@<TRIPOS>BOND
     1    1    3 2   
     2    1    4 1   
     3    1   20 1   
     4    2    4 1   
     5    2   14 1   
     6    2   21 1   
     7    4    5 1   
     8    4   22 1   
     9    5   11 1   
    10    5   12 1   
    11    5   23 1   
    12    6   24 1   
    13    6   25 1   
    14    6   26 1   
    15    6   44 1   
    16    7   27 1   
    17    7   28 1   
    18    7   29 1   
    19    7   43 1   
    20    8    9 ar  
    21    8   10 ar  
    22    8   36 1   
    23    9   15 ar  
    24    9   37 1   
    25   10   16 ar  
    26   10   38 1   
    27   11   18 1   
    28   11   39 1   
    29   12   19 1   
    30   13   18 1   
    31   13   45 1   
    32   13   47 1   
    33   14   17 1   
    34   14   46 2   
    35   15   17 ar  
    36   15   44 1   
    37   16   17 ar  
    38   16   43 1   
    39   18   19 1   
    40   18   40 1   
    41   19   41 1   
    42   19   42 1   
    43   30   41 1   
    44   31   41 1   
    45   32   41 1   
    46   33   42 1   
    47   34   42 1   
    48   35   42 1   
@<TRIPOS>SUBSTRUCTURE
     1 7EP         1 TEMP              0 ****  ****    0 ROOT
