@<TRIPOS>MOLECULE
7EP
   47    45     1     0     0
SMALL
bcc


@<TRIPOS>ATOM
      1 C          -2.5170   -0.8160    0.2060 c1        1 7EP      0.179000
      2 N          -0.6290    0.3820   -0.3840 n         1 7EP     -0.305000
      3 O          -3.1620    0.1600    0.5380 o         1 7EP     -0.294000
      4 CA         -1.0630   -0.7690    0.2300 c2        1 7EP     -0.047000
      5 CB         -0.5320   -0.7950    1.8040 c3        1 7EP     -0.086000
      6 CAA         2.2770    3.7500   -1.3430 c3        1 7EP     -0.099000
      7 CAB         0.1720   -0.3110   -5.5600 c3        1 7EP     -0.076000
      8 CAC         0.0090   -1.3280    4.8800 c3        1 7EP     -0.202500
      9 CAD        -0.8390   -3.6660    4.2270 c3        1 7EP     -0.202500
     10 OAF         2.8470   -1.3890    3.7940 o         1 7EP     -0.562500
     11 OAG         0.7990   -0.6250   -1.8130 o         1 7EP     -0.382000
     12 OAH         2.4450   -3.3230    4.7330 o         1 7EP     -0.562500
     13 CAJ        -1.0660    3.5870   -4.0920 c1        1 7EP     -0.139500
     14 CAK        -0.3650    3.8630   -2.9060 c1        1 7EP     -0.222000
     15 CAL        -1.2010    2.2560   -4.5320 c1        1 7EP     -0.139500
     16 NAN         0.9640   -1.4010    1.8670 n3        1 7EP     -0.282000
     17 OAO         1.0350    3.1140   -1.0150 os        1 7EP     -0.197000
     18 OAP        -0.6180   -0.1680   -4.3390 os        1 7EP     -0.231000
     19 SAQ        -1.2700   -1.6050    2.5170 ss        1 7EP     -0.127000
     20 CAR         2.1260   -2.4090    3.9100 c2        1 7EP      0.346000
     21 CAS         0.0950    0.3050   -1.6030 c2        1 7EP      0.375000
     22 CAT         0.1960    2.8200   -2.1680 c2        1 7EP      0.125000
     23 CAU        -0.6360    1.2150   -3.7870 c1        1 7EP      0.121000
     24 CAV         0.0600    1.4970   -2.6090 c2        1 7EP     -0.161000
     25 CAY         0.9560   -2.5680    3.0720 c3        1 7EP     -0.115000
     26 CAZ        -0.2150   -2.3190    3.6910 c3        1 7EP     -0.084000
     27 H          -2.9760   -1.6210   -0.1160 ha        1 7EP      0.103000
     28 HN         -0.8750    1.1780   -0.0620 hn        1 7EP      0.224000
     29 HA         -0.7040   -1.5490   -0.2480 h4        1 7EP      0.157000
     30 HB         -0.5500    0.1120    2.1880 h2        1 7EP      0.093000
     31 HAA         2.5500    3.4900   -2.2660 h1        1 7EP      0.105000
     32 HAAA        2.1670    4.7430   -1.2940 h1        1 7EP      0.105000
     33 HAAB        2.9780    3.4630   -0.7000 h1        1 7EP      0.105000
     34 HAB         0.8200    0.4270   -5.6190 h1        1 7EP      0.085667
     35 HABA        0.6540   -1.1700   -5.5430 h1        1 7EP      0.085667
     36 HABB       -0.4120   -0.2860   -6.3250 h1        1 7EP      0.085667
     37 HAC         0.6030   -0.5850    4.5880 hc        1 7EP      0.085667
     38 HACA        0.4300   -1.8100    5.6360 hc        1 7EP      0.085667
     39 HACB       -0.8390   -0.9700    5.1610 hc        1 7EP      0.085667
     40 HAD        -0.8430   -4.3530    3.4890 hc        1 7EP      0.085667
     41 HADA       -1.7550   -3.5020    4.5260 hc        1 7EP      0.085667
     42 HADB       -0.3200   -3.9890    4.9600 hc        1 7EP      0.085667
     43 HAJ        -1.4690    4.3370   -4.6240 ha        1 7EP      0.131500
     44 HAK        -0.2680    4.7780   -2.6000 ha        1 7EP      0.142000
     45 HAL        -1.6210    2.0690   -5.3750 ha        1 7EP      0.131500
     46 HNAN        1.5350   -0.7520    2.0850 hn        1 7EP      0.193000
     47 HAY         1.0260   -3.4650    2.8220 h1        1 7EP      0.109000
@<TRIPOS>BOND
     1    1    3 1   
     2    1   27 1   
     3    2    4 1   
     4    2   21 1   
     5    2   28 1   
     6    4    5 1   
     7    4   29 1   
     8    5   16 1   
     9    5   19 1   
    10    5   30 1   
    11    6   17 1   
    12    6   31 1   
    13    6   32 1   
    14    6   33 1   
    15    7   18 1   
    16    7   34 1   
    17    7   35 1   
    18    7   36 1   
    19    8   26 1   
    20    8   37 1   
    21    8   38 1   
    22    8   39 1   
    23    9   26 1   
    24    9   40 1   
    25    9   41 1   
    26    9   42 1   
    27   10   20 1   
    28   11   21 1   
    29   12   20 1   
    30   13   15 1   
    31   13   43 1   
    32   14   22 1   
    33   14   44 1   
    34   15   45 1   
    35   16   25 1   
    36   16   46 1   
    37   17   22 1   
    38   18   23 1   
    39   19   26 1   
    40   20   25 1   
    41   21   24 1   
    42   22   24 1   
    43   23   24 1   
    44   25   26 1   
    45   25   47 1   
@<TRIPOS>SUBSTRUCTURE
     1 7EP         1 TEMP              0 ****  ****    0 ROOT
