@<TRIPOS>MOLECULE
7F3
   49    53     1     0     0
SMALL
bcc


@<TRIPOS>ATOM
      1 C1         -0.1320    0.0200   -0.0720 ca        1 7F3     -0.056000
      2 C2          1.2700   -0.0800   -0.0670 ca        1 7F3     -0.106000
      3 C3          1.9430    0.0150    1.1370 ca        1 7F3     -0.047300
      4 C4          1.2000    0.1540    2.3460 ca        1 7F3     -0.271900
      5 C5         -0.1910    0.2460    2.3390 ca        1 7F3      0.169900
      6 C6         -0.8630    0.1870    1.0990 ca        1 7F3     -0.134000
      7 F7         -0.8740    0.3780    3.5010 f         1 7F3     -0.139900
      8 C8          2.2010    0.1290    3.4320 ce        1 7F3      0.503800
      9 N9          3.4410    0.0020    3.0250 n2        1 7F3     -0.486900
     10 C10         3.4410   -0.0350    1.5100 c3        1 7F3      0.291100
     11 C11         4.2020    1.1670    0.9760 ca        1 7F3     -0.120300
     12 C12         3.8770    1.7240   -0.2660 ca        1 7F3     -0.084000
     13 C13         4.5900    2.8040   -0.7690 ca        1 7F3     -0.156000
     14 C14         5.6540    3.3580   -0.0310 ca        1 7F3      0.169900
     15 C15         6.0030    2.8060    1.2250 cp        1 7F3     -0.046000
     16 C16         5.2690    1.7110    1.7010 ca        1 7F3     -0.088000
     17 C17         7.0890    3.3380    2.0290 cp        1 7F3     -0.298600
     18 C18         8.3310    3.7340    1.4710 ca        1 7F3      0.450700
     19 N19         9.3410    4.2070    2.2250 nb        1 7F3     -0.681000
     20 C20         9.1070    4.2900    3.5630 ca        1 7F3      0.650900
     21 N21         7.9570    3.9470    4.2080 nb        1 7F3     -0.681000
     22 C22         6.9640    3.4770    3.4320 ca        1 7F3      0.450700
     23 F23         6.3230    4.4140   -0.5400 f         1 7F3     -0.111900
     24 C24         4.1070   -1.3220    1.0650 ca        1 7F3     -0.065300
     25 C25         3.3920   -2.3720    0.4860 ca        1 7F3     -0.215300
     26 C26         4.0920   -3.5350    0.1020 ca        1 7F3      0.407200
     27 N27         5.4130   -3.7010    0.2740 nb        1 7F3     -0.589000
     28 C28         6.0900   -2.6790    0.8470 ca        1 7F3      0.333600
     29 C29         5.4890   -1.4770    1.2560 ca        1 7F3     -0.171300
     30 C30         7.6110   -2.8740    1.0530 c3        1 7F3      0.602600
     31 F31         8.3030   -3.0780   -0.1090 f         1 7F3     -0.218300
     32 F32         8.2210   -1.7950    1.6420 f         1 7F3     -0.218300
     33 F33         7.9220   -3.9330    1.8620 f         1 7F3     -0.218300
     34 N34         1.7950    0.2280    4.8370 nz        1 7F3     -0.781600
     35 H1         -0.6680   -0.0410   -1.0360 ha        1 7F3      0.175000
     36 H2          1.8050   -0.2500   -1.0170 ha        1 7F3      0.174000
     37 H6         -1.9620    0.2680    1.0760 ha        1 7F3      0.184000
     38 H341        2.0430    1.1580    5.2020 hn        1 7F3      0.482133
     39 H342        0.7730    0.1000    4.8930 hn        1 7F3      0.482133
     40 H12         3.0560    1.3190   -0.8760 ha        1 7F3      0.142000
     41 H16         5.5780    1.2810    2.6690 ha        1 7F3      0.152000
     42 H13         4.3320    3.2390   -1.7480 ha        1 7F3      0.170000
     43 H18         8.5150    3.6710    0.3820 h4        1 7F3      0.029600
     44 H22         6.0260    3.2070    3.9490 h4        1 7F3      0.029600
     45 H20         9.9370    4.6800    4.1920 h5        1 7F3      0.071100
     46 H25         2.3070   -2.3210    0.3200 ha        1 7F3      0.152000
     47 H29         6.0970   -0.6790    1.7100 ha        1 7F3      0.177000
     48 H26         3.5620   -4.3850   -0.3690 h4        1 7F3      0.051100
     49 H343        2.2670   -0.4900    5.4030 hn        1 7F3      0.482133
@<TRIPOS>BOND
     1    1    2 ar  
     2    1    6 ar  
     3    1   35 1   
     4    2    3 ar  
     5    2   36 1   
     6    3    4 ar  
     7    3   10 1   
     8    4    5 ar  
     9    4    8 1   
    10    5    6 ar  
    11    5    7 1   
    12    6   37 1   
    13    8    9 2   
    14    8   34 1   
    15    9   10 1   
    16   10   11 1   
    17   10   24 1   
    18   11   12 ar  
    19   11   16 ar  
    20   12   13 ar  
    21   12   40 1   
    22   13   14 ar  
    23   13   42 1   
    24   14   15 ar  
    25   14   23 1   
    26   15   16 ar  
    27   15   17 1   
    28   16   41 1   
    29   17   18 ar  
    30   17   22 ar  
    31   18   19 ar  
    32   18   43 1   
    33   19   20 ar  
    34   20   21 ar  
    35   20   45 1   
    36   21   22 ar  
    37   22   44 1   
    38   24   25 ar  
    39   24   29 ar  
    40   25   26 ar  
    41   25   46 1   
    42   26   27 ar  
    43   26   48 1   
    44   27   28 ar  
    45   28   29 ar  
    46   28   30 1   
    47   29   47 1   
    48   30   31 1   
    49   30   32 1   
    50   30   33 1   
    51   34   38 1   
    52   34   39 1   
    53   34   49 1   
@<TRIPOS>SUBSTRUCTURE
     1 7F3         1 TEMP              0 ****  ****    0 ROOT
