@<TRIPOS>MOLECULE
7F3
   49    53     1     0     0
SMALL
bcc


@<TRIPOS>ATOM
      1 C1         -0.1330    0.0140   -0.0650 ca        1 7F3     -0.056000
      2 C2          1.2690   -0.0820   -0.0640 ca        1 7F3     -0.106000
      3 C3          1.9440    0.0100    1.1400 ca        1 7F3     -0.047300
      4 C4          1.2030    0.1420    2.3510 ca        1 7F3     -0.271900
      5 C5         -0.1890    0.2310    2.3470 ca        1 7F3      0.169900
      6 C6         -0.8630    0.1760    1.1080 ca        1 7F3     -0.134000
      7 F7         -0.8690    0.3570    3.5110 f         1 7F3     -0.139900
      8 C8          2.2070    0.1160    3.4340 ce        1 7F3      0.503800
      9 N9          3.4460   -0.0060    3.0240 n2        1 7F3     -0.486900
     10 C10         3.4420   -0.0380    1.5090 c3        1 7F3      0.291100
     11 C11         4.2000    1.1690    0.9780 ca        1 7F3     -0.120300
     12 C12         3.8700    1.7290   -0.2610 ca        1 7F3     -0.084000
     13 C13         4.5790    2.8130   -0.7610 ca        1 7F3     -0.156000
     14 C14         5.6430    3.3670   -0.0230 ca        1 7F3      0.169900
     15 C15         5.9960    2.8120    1.2300 cp        1 7F3     -0.046000
     16 C16         5.2660    1.7130    1.7040 ca        1 7F3     -0.088000
     17 C17         7.0820    3.3440    2.0340 cp        1 7F3     -0.298600
     18 C18         8.3220    3.7460    1.4760 ca        1 7F3      0.450700
     19 N19         9.3310    4.2190    2.2300 nb        1 7F3     -0.681000
     20 C20         9.1000    4.2970    3.5690 ca        1 7F3      0.650900
     21 N21         7.9520    3.9480    4.2140 nb        1 7F3     -0.681000
     22 C22         6.9590    3.4770    3.4380 ca        1 7F3      0.450700
     23 F23         6.3080    4.4270   -0.5290 f         1 7F3     -0.111900
     24 C24         4.1110   -1.3210    1.0580 ca        1 7F3     -0.065300
     25 C25         3.3980   -2.3710    0.4770 ca        1 7F3     -0.215300
     26 C26         4.1000   -3.5300    0.0870 ca        1 7F3      0.407200
     27 N27         5.4220   -3.6930    0.2550 nb        1 7F3     -0.589000
     28 C28         6.0980   -2.6720    0.8300 ca        1 7F3      0.333600
     29 C29         5.4940   -1.4730    1.2460 ca        1 7F3     -0.171300
     30 C30         7.6190   -2.8640    1.0320 c3        1 7F3      0.602600
     31 F31         8.3090   -3.0620   -0.1320 f         1 7F3     -0.218300
     32 F32         8.2280   -1.7850    1.6240 f         1 7F3     -0.218300
     33 F33         7.9350   -3.9250    1.8370 f         1 7F3     -0.218300
     34 N34         1.8030    0.2080    4.8410 n4        1 7F3     -0.782600
     35 H1         -0.6720   -0.0440   -1.0280 ha        1 7F3      0.175000
     36 H2          1.8020   -0.2470   -1.0150 ha        1 7F3      0.174000
     37 H6         -1.9620    0.2530    1.0880 ha        1 7F3      0.184000
     38 H341        0.7800    0.0830    4.8980 hn        1 7F3      0.482133
     39 H342        2.0550    1.1350    5.2110 hn        1 7F3      0.482133
     40 H12         3.0500    1.3240   -0.8710 ha        1 7F3      0.142000
     41 H16         5.5780    1.2800    2.6700 ha        1 7F3      0.152000
     42 H13         4.3190    3.2500   -1.7380 ha        1 7F3      0.170000
     43 H18         8.5040    3.6880    0.3860 h4        1 7F3      0.029600
     44 H22         6.0230    3.2020    3.9560 h4        1 7F3      0.029600
     45 H20         9.9290    4.6870    4.1980 h5        1 7F3      0.071100
     46 H25         2.3120   -2.3210    0.3130 ha        1 7F3      0.152000
     47 H29         6.1010   -0.6750    1.7010 ha        1 7F3      0.177000
     48 H26         3.5710   -4.3800   -0.3870 h4        1 7F3      0.051100
     49 H343        2.2730   -0.5160    5.4020 hn        1 7F3      0.482133
@<TRIPOS>BOND
     1    1    2 ar  
     2    1    6 ar  
     3    1   35 1   
     4    2    3 ar  
     5    2   36 1   
     6    3    4 ar  
     7    3   10 1   
     8    4    5 ar  
     9    4    8 1   
    10    5    6 ar  
    11    5    7 1   
    12    6   37 1   
    13    8    9 2   
    14    8   34 1   
    15    9   10 1   
    16   10   11 1   
    17   10   24 1   
    18   11   12 ar  
    19   11   16 ar  
    20   12   13 ar  
    21   12   40 1   
    22   13   14 ar  
    23   13   42 1   
    24   14   15 ar  
    25   14   23 1   
    26   15   16 ar  
    27   15   17 1   
    28   16   41 1   
    29   17   18 ar  
    30   17   22 ar  
    31   18   19 ar  
    32   18   43 1   
    33   19   20 ar  
    34   20   21 ar  
    35   20   45 1   
    36   21   22 ar  
    37   22   44 1   
    38   24   25 ar  
    39   24   29 ar  
    40   25   26 ar  
    41   25   46 1   
    42   26   27 ar  
    43   26   48 1   
    44   27   28 ar  
    45   28   29 ar  
    46   28   30 1   
    47   29   47 1   
    48   30   31 1   
    49   30   32 1   
    50   30   33 1   
    51   34   38 1   
    52   34   39 1   
    53   34   49 1   
@<TRIPOS>SUBSTRUCTURE
     1 7F3         1 TEMP              0 ****  ****    0 ROOT
