@<TRIPOS>MOLECULE
7F3
   48    52     1     0     0
SMALL
bcc


@<TRIPOS>ATOM
      1 C1          2.9790   -3.4140   -1.1860 ca        1 7F3     -0.087000
      2 C2          2.2210   -2.2420   -1.3360 ca        1 7F3     -0.124000
      3 C3          1.8860   -1.5240   -0.2050 ca        1 7F3     -0.066300
      4 C4          2.2810   -1.9740    1.0830 ca        1 7F3     -0.239900
      5 C5          3.0390   -3.1330    1.2270 ca        1 7F3      0.170900
      6 C6          3.3910   -3.8580    0.0630 ca        1 7F3     -0.164000
      7 F7          3.4390   -3.5710    2.4430 f         1 7F3     -0.133900
      8 C8          1.7030   -1.0020    2.0660 ce        1 7F3      0.670800
      9 N9          1.0180   -0.0270    1.4720 n2        1 7F3     -0.655900
     10 C10         1.0600   -0.2390   -0.0060 c3        1 7F3      0.273100
     11 C11        -0.3110   -0.4500   -0.6240 ca        1 7F3     -0.084300
     12 C12        -0.4400   -0.3520   -2.0180 ca        1 7F3     -0.098000
     13 C13        -1.6660   -0.5590   -2.6320 ca        1 7F3     -0.164000
     14 C14        -2.7990   -0.8690   -1.8550 ca        1 7F3      0.142900
     15 C15        -2.6880   -0.9710   -0.4500 cp        1 7F3     -0.066000
     16 C16        -1.4330   -0.7560    0.1440 ca        1 7F3     -0.067000
     17 C17        -3.8270   -1.2920    0.3940 cp        1 7F3     -0.271600
     18 C18        -5.1130   -0.7380    0.1810 ca        1 7F3      0.442200
     19 N19        -6.1630   -1.0210    0.9750 nb        1 7F3     -0.689500
     20 C20        -5.9230   -1.8800    2.0030 ca        1 7F3      0.631900
     21 N21        -4.7370   -2.4760    2.3030 nb        1 7F3     -0.689500
     22 C22        -3.7020   -2.1750    1.4950 ca        1 7F3      0.442200
     23 F23        -3.9820   -1.0720   -2.4810 f         1 7F3     -0.133900
     24 C24         1.7080    0.9780   -0.6430 ca        1 7F3     -0.031300
     25 C25         2.8680    0.9040   -1.4150 ca        1 7F3     -0.222300
     26 C26         3.4020    2.0950   -1.9500 ca        1 7F3      0.392200
     27 N27         2.8640    3.3090   -1.7570 nb        1 7F3     -0.619000
     28 C28         1.7420    3.3650   -0.9990 ca        1 7F3      0.317600
     29 C29         1.1310    2.2410   -0.4220 ca        1 7F3     -0.162300
     30 C30         1.1280    4.7610   -0.7740 c3        1 7F3      0.600600
     31 F31         0.7520    5.3980   -1.9280 f         1 7F3     -0.228967
     32 F32        -0.0090    4.7520   -0.0050 f         1 7F3     -0.228967
     33 F33         1.9630    5.6430   -0.1380 f         1 7F3     -0.228967
     34 N34         1.8290   -1.2050    3.4240 nh        1 7F3     -0.896800
     35 H1          3.2510   -3.9950   -2.0820 ha        1 7F3      0.147000
     36 H2          1.8940   -1.9160   -2.3350 ha        1 7F3      0.149000
     37 H6          3.9870   -4.7770    0.1670 ha        1 7F3      0.157000
     38 H341        2.5850   -1.7830    3.7090 hn        1 7F3      0.430300
     39 H342        1.5860   -0.4550    4.0290 hn        1 7F3      0.430300
     40 H12         0.4390   -0.1010   -2.6340 ha        1 7F3      0.140000
     41 H16        -1.3640   -0.8260    1.2420 ha        1 7F3      0.161000
     42 H13        -1.7690   -0.4810   -3.7250 ha        1 7F3      0.155000
     43 H18        -5.3010   -0.0460   -0.6610 h4        1 7F3      0.036600
     44 H22        -2.7360   -2.6580    1.7310 h4        1 7F3      0.036600
     45 H20        -6.7820   -2.1190    2.6630 h5        1 7F3      0.057100
     46 H25         3.3730   -0.0520   -1.6090 ha        1 7F3      0.155000
     47 H29         0.2250    2.3460    0.1960 ha        1 7F3      0.182000
     48 H26         4.3190    2.0740   -2.5680 h4        1 7F3      0.034100
@<TRIPOS>BOND
     1    1    2 ar  
     2    1    6 ar  
     3    1   35 1   
     4    2    3 ar  
     5    2   36 1   
     6    3    4 ar  
     7    3   10 1   
     8    4    5 ar  
     9    4    8 1   
    10    5    6 ar  
    11    5    7 1   
    12    6   37 1   
    13    8    9 2   
    14    8   34 1   
    15    9   10 1   
    16   10   11 1   
    17   10   24 1   
    18   11   12 ar  
    19   11   16 ar  
    20   12   13 ar  
    21   12   40 1   
    22   13   14 ar  
    23   13   42 1   
    24   14   15 ar  
    25   14   23 1   
    26   15   16 ar  
    27   15   17 1   
    28   16   41 1   
    29   17   18 ar  
    30   17   22 ar  
    31   18   19 ar  
    32   18   43 1   
    33   19   20 ar  
    34   20   21 ar  
    35   20   45 1   
    36   21   22 ar  
    37   22   44 1   
    38   24   25 ar  
    39   24   29 ar  
    40   25   26 ar  
    41   25   46 1   
    42   26   27 ar  
    43   26   48 1   
    44   27   28 ar  
    45   28   29 ar  
    46   28   30 1   
    47   29   47 1   
    48   30   31 1   
    49   30   32 1   
    50   30   33 1   
    51   34   38 1   
    52   34   39 1   
@<TRIPOS>SUBSTRUCTURE
     1 7F3         1 TEMP              0 ****  ****    0 ROOT
