@<TRIPOS>MOLECULE
7F3
   49    53     1     0     0
SMALL
bcc


@<TRIPOS>ATOM
      1 C1         -0.1300    0.0220   -0.0790 ca        1 7F3     -0.056000
      2 C2          1.2720   -0.0830   -0.0690 ca        1 7F3     -0.106000
      3 C3          1.9420    0.0190    1.1360 ca        1 7F3     -0.047300
      4 C4          1.1970    0.1720    2.3410 ca        1 7F3     -0.271900
      5 C5         -0.1940    0.2690    2.3300 ca        1 7F3      0.169900
      6 C6         -0.8630    0.2020    1.0890 ca        1 7F3     -0.134000
      7 F7         -0.8790    0.4140    3.4900 f         1 7F3     -0.139900
      8 C8          2.1960    0.1530    3.4300 ce        1 7F3      0.503800
      9 N9          3.4350    0.0180    3.0270 n2        1 7F3     -0.486900
     10 C10         3.4390   -0.0320    1.5120 c3        1 7F3      0.291100
     11 C11         4.2060    1.1630    0.9700 ca        1 7F3     -0.120300
     12 C12         3.8850    1.7100   -0.2770 ca        1 7F3     -0.084000
     13 C13         4.6030    2.7830   -0.7870 ca        1 7F3     -0.156000
     14 C14         5.6680    3.3390   -0.0520 ca        1 7F3      0.169900
     15 C15         6.0110    2.7970    1.2100 cp        1 7F3     -0.046000
     16 C16         5.2730    1.7090    1.6940 ca        1 7F3     -0.088000
     17 C17         7.0980    3.3330    2.0120 cp        1 7F3     -0.298600
     18 C18         8.3420    3.7190    1.4540 ca        1 7F3      0.450700
     19 N19         9.3520    4.1950    2.2060 nb        1 7F3     -0.681000
     20 C20         9.1150    4.2910    3.5430 ca        1 7F3      0.650900
     21 N21         7.9630    3.9580    4.1880 nb        1 7F3     -0.681000
     22 C22         6.9690    3.4840    3.4130 ca        1 7F3      0.450700
     23 F23         6.3420    4.3890   -0.5680 f         1 7F3     -0.111900
     24 C24         4.1010   -1.3250    1.0810 ca        1 7F3     -0.065300
     25 C25         3.3840   -2.3780    0.5100 ca        1 7F3     -0.215300
     26 C26         4.0810   -3.5470    0.1370 ca        1 7F3      0.407200
     27 N27         5.4010   -3.7160    0.3130 nb        1 7F3     -0.589000
     28 C28         6.0810   -2.6910    0.8780 ca        1 7F3      0.333600
     29 C29         5.4820   -1.4840    1.2760 ca        1 7F3     -0.171300
     30 C30         7.6000   -2.8890    1.0890 c3        1 7F3      0.602600
     31 F31         8.2940   -3.1060   -0.0700 f         1 7F3     -0.218300
     32 F32         8.2130   -1.8070    1.6690 f         1 7F3     -0.218300
     33 F33         7.9060   -3.9420    1.9080 f         1 7F3     -0.218300
     34 N34         1.7860    0.2650    4.8340 n4        1 7F3     -0.782600
     35 H1         -0.6640   -0.0450   -1.0430 ha        1 7F3      0.175000
     36 H2          1.8080   -0.2630   -1.0160 ha        1 7F3      0.174000
     37 H6         -1.9620    0.2860    1.0630 ha        1 7F3      0.184000
     38 H341        2.0390    1.1960    5.1910 hn        1 7F3      0.482133
     39 H342        0.7630    0.1440    4.8880 hn        1 7F3      0.482133
     40 H12         3.0650    1.3020   -0.8860 ha        1 7F3      0.142000
     41 H16         5.5780    1.2860    2.6660 ha        1 7F3      0.152000
     42 H13         4.3490    3.2100   -1.7710 ha        1 7F3      0.170000
     43 H18         8.5290    3.6460    0.3650 h4        1 7F3      0.029600
     44 H22         6.0300    3.2220    3.9300 h4        1 7F3      0.029600
     45 H20         9.9440    4.6830    4.1710 h5        1 7F3      0.071100
     46 H25         2.3000   -2.3240    0.3410 ha        1 7F3      0.152000
     47 H29         6.0930   -0.6830    1.7230 ha        1 7F3      0.177000
     48 H26         3.5490   -4.3990   -0.3280 h4        1 7F3      0.051100
     49 H343        2.2520   -0.4520    5.4060 hn        1 7F3      0.482133
@<TRIPOS>BOND
     1    1    2 ar  
     2    1    6 ar  
     3    1   35 1   
     4    2    3 ar  
     5    2   36 1   
     6    3    4 ar  
     7    3   10 1   
     8    4    5 ar  
     9    4    8 1   
    10    5    6 ar  
    11    5    7 1   
    12    6   37 1   
    13    8    9 2   
    14    8   34 1   
    15    9   10 1   
    16   10   11 1   
    17   10   24 1   
    18   11   12 ar  
    19   11   16 ar  
    20   12   13 ar  
    21   12   40 1   
    22   13   14 ar  
    23   13   42 1   
    24   14   15 ar  
    25   14   23 1   
    26   15   16 ar  
    27   15   17 1   
    28   16   41 1   
    29   17   18 ar  
    30   17   22 ar  
    31   18   19 ar  
    32   18   43 1   
    33   19   20 ar  
    34   20   21 ar  
    35   20   45 1   
    36   21   22 ar  
    37   22   44 1   
    38   24   25 ar  
    39   24   29 ar  
    40   25   26 ar  
    41   25   46 1   
    42   26   27 ar  
    43   26   48 1   
    44   27   28 ar  
    45   28   29 ar  
    46   28   30 1   
    47   29   47 1   
    48   30   31 1   
    49   30   32 1   
    50   30   33 1   
    51   34   38 1   
    52   34   39 1   
    53   34   49 1   
@<TRIPOS>SUBSTRUCTURE
     1 7F3         1 TEMP              0 ****  ****    0 ROOT
