@<TRIPOS>MOLECULE
7F5
   48    50     1     0     0
SMALL
bcc


@<TRIPOS>ATOM
      1 N01         0.2160   -0.9640   -0.0950 nc        1 7F5     -0.634000
      2 C02         1.5280   -0.7680    0.0500 cd        1 7F5      0.420400
      3 N03         1.8510   -0.3740    1.3820 na        1 7F5     -0.265700
      4 C04         0.6190   -0.3310    2.0910 cd        1 7F5     -0.141900
      5 C05        -0.3610   -0.6990    1.1560 cc        1 7F5      0.301200
      6 C06         0.4200    0.0220    3.5020 c3        1 7F5     -0.028800
      7 C1'         9.0230   -3.2030   -5.9130 ca        1 7F5     -0.085300
      8 N11         3.3070    0.3330    3.1630 nb        1 7F5     -0.690000
      9 C12         3.1470   -0.0970    1.8490 ca        1 7F5      0.790500
     10 N13         4.1920   -0.2750    0.9540 nb        1 7F5     -0.767000
     11 C14         5.4370   -0.0060    1.4110 ca        1 7F5      0.453600
     12 C15         5.6860    0.4320    2.7230 ca        1 7F5     -0.386600
     13 C16         4.5600    0.5830    3.5600 ca        1 7F5      0.480200
     14 C17         6.6160   -0.1540    0.4880 c3        1 7F5     -0.157700
     15 C18         6.2670   -0.9410   -0.7710 c3        1 7F5      0.111800
     16 N19         7.4530   -1.1460   -1.6580 ny        1 7F5     -0.766000
     17 C2'         9.9870   -4.1390   -5.5300 ca        1 7F5     -0.171000
     18 C20         7.0980   -1.9210   -2.8870 c3        1 7F5      0.102800
     19 C21         8.2970   -2.1350   -3.8020 c3        1 7F5     -0.110400
     20 C22         7.8620   -2.9360   -5.0190 c3        1 7F5     -0.026100
     21 C3'        11.0760   -4.4020   -6.3810 ca        1 7F5      0.139900
     22 C4'        11.1940   -3.7300   -7.6130 ca        1 7F5     -0.146000
     23 C5'        10.2220   -2.8050   -7.9790 ca        1 7F5     -0.094000
     24 C6'         9.1420   -2.5370   -7.1370 ca        1 7F5     -0.134000
     25 F7'        12.0120   -5.3050   -6.0090 f         1 7F5     -0.127900
     26 H02         2.2860   -0.8790   -0.7310 h5        1 7F5      0.064100
     27 H05        -1.4370   -0.7870    1.3100 h4        1 7F5      0.061100
     28 H06        -0.6700   -0.0620    3.7430 hc        1 7F5      0.064700
     29 H06A        0.9870   -0.6660    4.1780 hc        1 7F5      0.064700
     30 H06B        0.7480    1.0730    3.7070 hc        1 7F5      0.064700
     31 H16         4.6690    0.9260    4.6090 h4        1 7F5      0.055100
     32 H15         6.6970    0.6480    3.0860 ha        1 7F5      0.167000
     33 H17         6.9700    0.8790    0.2190 hc        1 7F5      0.080700
     34 H17A        7.4380   -0.6670    1.0580 hc        1 7F5      0.080700
     35 H18         5.8610   -1.9570   -0.4960 hx        1 7F5      0.122700
     36 H18A        5.4830   -0.3930   -1.3720 hx        1 7F5      0.122700
     37 HN19        8.1850   -1.6490   -1.1430 hn        1 7F5      0.448300
     38 H20         6.6770   -2.9150   -2.5580 hx        1 7F5      0.109700
     39 H20A        6.2900   -1.3530   -3.4320 hx        1 7F5      0.109700
     40 H21         8.7180   -1.1510   -4.1380 hc        1 7F5      0.072200
     41 H21A        9.1100   -2.6930   -3.2660 hc        1 7F5      0.072200
     42 H22         7.0660   -2.3730   -5.5770 hc        1 7F5      0.063700
     43 H22A        7.4150   -3.9130   -4.6890 hc        1 7F5      0.063700
     44 H6'         8.3780   -1.8080   -7.4470 ha        1 7F5      0.139000
     45 H5'        10.3050   -2.2810   -8.9440 ha        1 7F5      0.153000
     46 H4'        12.0490   -3.9470   -8.2720 ha        1 7F5      0.165000
     47 H2'         9.8990   -4.6850   -4.5800 ha        1 7F5      0.142000
     48 H192        7.8370   -0.2350   -1.9330 hn        1 7F5      0.448300
@<TRIPOS>BOND
     1    1    2 2   
     2    1    5 1   
     3    2    3 1   
     4    2   26 1   
     5    3    4 1   
     6    3    9 1   
     7    4    5 2   
     8    4    6 1   
     9    5   27 1   
    10    6   28 1   
    11    6   29 1   
    12    6   30 1   
    13    7   17 ar  
    14    7   20 1   
    15    7   24 ar  
    16    8    9 ar  
    17    8   13 ar  
    18    9   10 ar  
    19   10   11 ar  
    20   11   12 ar  
    21   11   14 1   
    22   12   13 ar  
    23   12   32 1   
    24   13   31 1   
    25   14   15 1   
    26   14   33 1   
    27   14   34 1   
    28   15   16 1   
    29   15   35 1   
    30   15   36 1   
    31   16   18 1   
    32   16   37 1   
    33   16   48 1   
    34   17   21 ar  
    35   17   47 1   
    36   18   19 1   
    37   18   38 1   
    38   18   39 1   
    39   19   20 1   
    40   19   40 1   
    41   19   41 1   
    42   20   42 1   
    43   20   43 1   
    44   21   22 ar  
    45   21   25 1   
    46   22   23 ar  
    47   22   46 1   
    48   23   24 ar  
    49   23   45 1   
    50   24   44 1   
@<TRIPOS>SUBSTRUCTURE
     1 7F5         1 TEMP              0 ****  ****    0 ROOT
