@<TRIPOS>MOLECULE
7F5
   48    50     1     0     0
SMALL
bcc


@<TRIPOS>ATOM
      1 N01         0.2130   -0.9780   -0.0890 nc        1 7F5     -0.634000
      2 C02         1.5240   -0.7750    0.0520 cd        1 7F5      0.420400
      3 N03         1.8500   -0.3790    1.3830 na        1 7F5     -0.265700
      4 C04         0.6190   -0.3430    2.0950 cd        1 7F5     -0.141900
      5 C05        -0.3610   -0.7160    1.1640 cc        1 7F5      0.301200
      6 C06         0.4220    0.0100    3.5070 c3        1 7F5     -0.028800
      7 C1'         9.0270   -3.2110   -5.9080 ca        1 7F5     -0.085300
      8 N11         3.3060    0.3380    3.1600 nb        1 7F5     -0.690000
      9 C12         3.1450   -0.0950    1.8470 ca        1 7F5      0.790500
     10 N13         4.1890   -0.2680    0.9500 nb        1 7F5     -0.767000
     11 C14         5.4330    0.0080    1.4030 ca        1 7F5      0.453600
     12 C15         5.6830    0.4490    2.7140 ca        1 7F5     -0.386600
     13 C16         4.5580    0.5960    3.5530 ca        1 7F5      0.480200
     14 C17         6.6100   -0.1350    0.4760 c3        1 7F5     -0.157700
     15 C18         6.2650   -0.9330   -0.7760 c3        1 7F5      0.111800
     16 N19         7.4500   -1.1350   -1.6640 n4        1 7F5     -0.766000
     17 C2'        10.0010   -4.1350   -5.5210 ca        1 7F5     -0.171000
     18 C20         7.0990   -1.9230   -2.8860 c3        1 7F5      0.102800
     19 C21         8.2960   -2.1330   -3.8030 c3        1 7F5     -0.110400
     20 C22         7.8660   -2.9490   -5.0120 c3        1 7F5     -0.026100
     21 C3'        11.0890   -4.3930   -6.3720 ca        1 7F5      0.139900
     22 C4'        11.1970   -3.7300   -7.6110 ca        1 7F5     -0.146000
     23 C5'        10.2150   -2.8180   -7.9800 ca        1 7F5     -0.094000
     24 C6'         9.1340   -2.5550   -7.1370 ca        1 7F5     -0.134000
     25 F7'        12.0360   -5.2840   -5.9960 f         1 7F5     -0.127900
     26 H02         2.2820   -0.8820   -0.7310 h5        1 7F5      0.064100
     27 H05        -1.4370   -0.8100    1.3210 h4        1 7F5      0.061100
     28 H06         0.7440    1.0620    3.7110 hc        1 7F5      0.064700
     29 H06A        0.9960   -0.6750    4.1820 hc        1 7F5      0.064700
     30 H06B       -0.6670   -0.0820    3.7520 hc        1 7F5      0.064700
     31 H16         4.6680    0.9410    4.6010 h4        1 7F5      0.055100
     32 H15         6.6940    0.6710    3.0740 ha        1 7F5      0.167000
     33 H17         7.4400   -0.6350    1.0470 hc        1 7F5      0.080700
     34 H17A        6.9530    0.9000    0.1990 hc        1 7F5      0.080700
     35 H18         5.4740   -0.3970   -1.3780 hx        1 7F5      0.122700
     36 H18A        5.8690   -1.9520   -0.4910 hx        1 7F5      0.122700
     37 HN19        7.8250   -0.2220   -1.9480 hn        1 7F5      0.448300
     38 H20         6.2830   -1.3670   -3.4330 hx        1 7F5      0.109700
     39 H20A        6.6880   -2.9180   -2.5480 hx        1 7F5      0.109700
     40 H21         9.1170   -2.6790   -3.2650 hc        1 7F5      0.072200
     41 H21A        8.7070   -1.1470   -4.1480 hc        1 7F5      0.072200
     42 H22         7.4290   -3.9270   -4.6720 hc        1 7F5      0.063700
     43 H22A        7.0630   -2.3980   -5.5720 hc        1 7F5      0.063700
     44 H6'         8.3620   -1.8360   -7.4500 ha        1 7F5      0.139000
     45 H5'        10.2890   -2.3020   -8.9510 ha        1 7F5      0.153000
     46 H4'        12.0510   -3.9450   -8.2710 ha        1 7F5      0.165000
     47 H2'         9.9220   -4.6730   -4.5660 ha        1 7F5      0.142000
     48 H192        8.1880   -1.6270   -1.1470 hn        1 7F5      0.448300
@<TRIPOS>BOND
     1    1    2 2   
     2    1    5 1   
     3    2    3 1   
     4    2   26 1   
     5    3    4 1   
     6    3    9 1   
     7    4    5 2   
     8    4    6 1   
     9    5   27 1   
    10    6   28 1   
    11    6   29 1   
    12    6   30 1   
    13    7   17 ar  
    14    7   20 1   
    15    7   24 ar  
    16    8    9 ar  
    17    8   13 ar  
    18    9   10 ar  
    19   10   11 ar  
    20   11   12 ar  
    21   11   14 1   
    22   12   13 ar  
    23   12   32 1   
    24   13   31 1   
    25   14   15 1   
    26   14   33 1   
    27   14   34 1   
    28   15   16 1   
    29   15   35 1   
    30   15   36 1   
    31   16   18 1   
    32   16   37 1   
    33   16   48 1   
    34   17   21 ar  
    35   17   47 1   
    36   18   19 1   
    37   18   38 1   
    38   18   39 1   
    39   19   20 1   
    40   19   40 1   
    41   19   41 1   
    42   20   42 1   
    43   20   43 1   
    44   21   22 ar  
    45   21   25 1   
    46   22   23 ar  
    47   22   46 1   
    48   23   24 ar  
    49   23   45 1   
    50   24   44 1   
@<TRIPOS>SUBSTRUCTURE
     1 7F5         1 TEMP              0 ****  ****    0 ROOT
