@<TRIPOS>MOLECULE
7FA
   57    53     1     0     0
SMALL
bcc


@<TRIPOS>ATOM
      1 C1         -3.9740    1.3490   -6.7060 c3        1 7FA     -0.907000
      2 P1         -3.7040    0.8590   -8.4330 p5        1 7FA      2.711000
      3 C2         -2.6540    1.7490   -6.0830 c3        1 7FA     -0.156000
      4 O2         -4.9360    0.0070   -8.9380 os        1 7FA     -0.775000
      5 C3         -2.8260    1.8920   -4.5870 c3        1 7FA     -0.149000
      6 C4         -1.5530    2.4440   -3.9840 c3        1 7FA     -0.157000
      7 C5         -1.5480    2.1880   -2.4930 c3        1 7FA     -0.131000
      8 C6         -0.4700    3.0250   -1.8400 c2        1 7FA     -0.173000
      9 C7         -0.0940    2.7700   -0.5720 c1        1 7FA     -0.162000
     10 C8         -0.7500    1.6460    0.2000 c2        1 7FA     -0.104500
     11 C9         -0.3150    1.7080    1.6480 c2        1 7FA     -0.166000
     12 CM         -4.8440   -0.6300  -10.1920 c3        1 7FA     -0.034000
     13 C10         0.0280    0.5780    2.2970 c1        1 7FA     -0.163000
     14 C11         0.4620    0.6390    3.7450 c2        1 7FA     -0.104500
     15 C12         1.0000   -0.7100    4.1680 c2        1 7FA     -0.166000
     16 C13         1.7010   -0.8270    5.3120 c1        1 7FA     -0.163000
     17 C14         2.2390   -2.1770    5.7350 c2        1 7FA     -0.131000
     18 C15         3.3560   -1.9830    6.7370 c3        1 7FA     -0.155000
     19 C16         4.0350   -3.3100    6.9970 c3        1 7FA     -0.158000
     20 C17         5.2690   -3.0870    7.8440 c3        1 7FA     -0.159000
     21 C18         6.0670   -4.3700    7.9200 c3        1 7FA     -0.211000
     22 H1         -4.5920    2.1060   -6.6740 hc        1 7FA      0.157500
     23 H1A        -4.3540    0.5970   -6.2090 hc        1 7FA      0.157500
     24 H2         -2.3610    2.6020   -6.4610 hc        1 7FA      0.100500
     25 H2A        -1.9840    1.0610   -6.2700 hc        1 7FA      0.100500
     26 H3         -3.5670    2.5030   -4.4000 hc        1 7FA      0.083000
     27 H3A        -3.0190    1.0170   -4.1950 hc        1 7FA      0.083000
     28 H4         -1.5050    3.4070   -4.1490 hc        1 7FA      0.085500
     29 H4A        -0.7810    2.0040   -4.3920 hc        1 7FA      0.085500
     30 H5         -1.3720    1.2410   -2.3250 hc        1 7FA      0.086500
     31 H5A        -2.4190    2.4280   -2.1180 hc        1 7FA      0.086500
     32 H6         -0.0470    3.7500   -2.3380 ha        1 7FA      0.124000
     33 H7          0.6010    3.3100   -0.1510 ha        1 7FA      0.126000
     34 H8         -1.7230    1.7390    0.1480 ha        1 7FA      0.092500
     35 H8A        -0.4830    0.7870   -0.1840 ha        1 7FA      0.092500
     36 H9         -0.2800    2.5660    2.1110 ha        1 7FA      0.123500
     37 HM         -3.9770   -1.0860  -10.2650 h1        1 7FA      0.087000
     38 HMA        -5.5680   -1.2870  -10.2790 h1        1 7FA      0.087000
     39 HMB        -4.9220    0.0390  -10.9060 h1        1 7FA      0.087000
     40 H10        -0.0090   -0.2810    1.8340 ha        1 7FA      0.122000
     41 H11        -0.3030    0.8750    4.3050 ha        1 7FA      0.092500
     42 H11A        1.1620    1.3150    3.8470 ha        1 7FA      0.092500
     43 H12         0.8340   -1.4970    3.6140 ha        1 7FA      0.123500
     44 H13         1.8570   -0.0430    5.8720 ha        1 7FA      0.122000
     45 H14         2.5820   -2.6510    4.9520 ha        1 7FA      0.085500
     46 H14A        1.5210   -2.7000    6.1440 ha        1 7FA      0.085500
     47 H15         2.9870   -1.6360    7.5740 hc        1 7FA      0.081000
     48 H15A        4.0080   -1.3480    6.3790 hc        1 7FA      0.081000
     49 H16         4.2930   -3.7170    6.1460 hc        1 7FA      0.079000
     50 H16A        3.4190   -3.9050    7.4690 hc        1 7FA      0.079000
     51 H17         5.8190   -2.3850    7.4410 hc        1 7FA      0.078000
     52 H17A        5.0020   -2.8150    8.7450 hc        1 7FA      0.078000
     53 H18         5.5290   -5.0630    8.3570 hc        1 7FA      0.072000
     54 H18A        6.8850   -4.2160    8.4380 hc        1 7FA      0.072000
     55 H18B        6.3040   -4.6620    7.0150 hc        1 7FA      0.072000
     56 O1         -2.4700    0.0460   -8.5280 o         1 7FA     -1.111000
     57 F1         -3.5550    2.1390   -9.3210 f         1 7FA     -0.536000
@<TRIPOS>BOND
     1    1    2 1   
     2    1    3 1   
     3    1   22 1   
     4    1   23 1   
     5    2    4 1   
     6    2   56 1   
     7    2   57 1   
     8    3    5 1   
     9    3   24 1   
    10    3   25 1   
    11    4   12 1   
    12    5    6 1   
    13    5   26 1   
    14    5   27 1   
    15    6    7 1   
    16    6   28 1   
    17    6   29 1   
    18    7    8 1   
    19    7   30 1   
    20    7   31 1   
    21    8    9 1   
    22    8   32 1   
    23    9   33 1   
    24   10   11 1   
    25   10   34 1   
    26   10   35 1   
    27   11   13 1   
    28   11   36 1   
    29   12   37 1   
    30   12   38 1   
    31   12   39 1   
    32   13   40 1   
    33   14   15 1   
    34   14   41 1   
    35   14   42 1   
    36   15   16 1   
    37   15   43 1   
    38   16   44 1   
    39   17   18 1   
    40   17   45 1   
    41   17   46 1   
    42   18   19 1   
    43   18   47 1   
    44   18   48 1   
    45   19   20 1   
    46   19   49 1   
    47   19   50 1   
    48   20   21 1   
    49   20   51 1   
    50   20   52 1   
    51   21   53 1   
    52   21   54 1   
    53   21   55 1   
@<TRIPOS>SUBSTRUCTURE
     1 7FA         1 TEMP              0 ****  ****    0 ROOT
