@<TRIPOS>MOLECULE
7FA
   57    56     1     0     0
SMALL
bcc


@<TRIPOS>ATOM
      1 C1         -4.2040   -1.0640   -0.2540 c3        1 7FA     -0.420600
      2 P1         -5.7840   -1.3160    0.1040 p5        1 7FA      1.601300
      3 C2         -3.8570    0.3410    0.1770 c3        1 7FA     -0.077400
      4 O2         -6.0450   -2.8520   -0.3120 os        1 7FA     -0.613200
      5 C3         -2.4010    0.6730   -0.0470 c3        1 7FA     -0.070400
      6 C4         -2.0910    2.0900    0.3880 c3        1 7FA     -0.078400
      7 C5         -0.6300    2.4200    0.1640 c3        1 7FA     -0.048200
      8 C6         -0.2990    3.8030    0.5810 c2        1 7FA     -0.177200
      9 C7          0.9400    4.3070    0.5690 c2        1 7FA     -0.166200
     10 C8          2.1350    3.5370    0.1490 c3        1 7FA     -0.020000
     11 C9          3.3600    4.3620    0.0240 c2        1 7FA     -0.171200
     12 CM         -6.8950   -3.6390    0.4850 c3        1 7FA      0.155700
     13 C10         4.5810    3.8510   -0.1720 c2        1 7FA     -0.169200
     14 C11         4.8570    2.3970   -0.2690 c3        1 7FA     -0.020000
     15 C12         6.2410    2.0820   -0.6970 c2        1 7FA     -0.170200
     16 C13         6.7510    0.8460   -0.6970 c2        1 7FA     -0.173200
     17 C14         6.0040   -0.3550   -0.2580 c3        1 7FA     -0.049200
     18 C15         6.7850   -1.6330   -0.4840 c3        1 7FA     -0.077400
     19 C16         5.9970   -2.8430   -0.0300 c3        1 7FA     -0.079400
     20 C17         6.7760   -4.1220   -0.2540 c3        1 7FA     -0.080400
     21 C18         5.9960   -5.3300    0.1970 c3        1 7FA     -0.093100
     22 H1         -3.5300   -1.7890    0.2740 hc        1 7FA      0.118200
     23 H1A        -3.9610   -1.1940   -1.3410 hc        1 7FA      0.118200
     24 H2         -4.5050    1.0570   -0.3960 hc        1 7FA      0.061200
     25 H2A        -4.1160    0.4520    1.2670 hc        1 7FA      0.061200
     26 H3         -1.7600   -0.0470    0.5280 hc        1 7FA      0.043700
     27 H3A        -2.1490    0.5460   -1.1330 hc        1 7FA      0.043700
     28 H4         -2.7330    2.8090   -0.1870 hc        1 7FA      0.046700
     29 H4A        -2.3440    2.2140    1.4740 hc        1 7FA      0.046700
     30 H5          0.0120    1.6930    0.7330 hc        1 7FA      0.047200
     31 H5A        -0.3780    2.2890   -0.9250 hc        1 7FA      0.047200
     32 H6         -1.1480    4.4240    0.9110 ha        1 7FA      0.124000
     33 H7          1.1180    5.3460    0.8910 ha        1 7FA      0.125000
     34 H8          2.3150    2.7070    0.8920 hc        1 7FA      0.055700
     35 H8A         1.9290    3.0340   -0.8400 hc        1 7FA      0.055700
     36 H9          3.2220    5.4530    0.0930 ha        1 7FA      0.124000
     37 HM         -7.2360   -3.0630    1.3840 h1        1 7FA      0.047700
     38 HMA        -7.7700   -3.9560   -0.1420 h1        1 7FA      0.047700
     39 HMB        -6.3250   -4.5530    0.7970 h1        1 7FA      0.047700
     40 H10         5.4530    4.5190   -0.2620 ha        1 7FA      0.125000
     41 H11         4.6560    1.9180    0.7330 hc        1 7FA      0.055700
     42 H11A        4.1330    1.9240   -0.9930 hc        1 7FA      0.055700
     43 H12         6.8530    2.9350   -1.0350 ha        1 7FA      0.124000
     44 H13         7.7870    0.6730   -1.0340 ha        1 7FA      0.123000
     45 H14         5.7530   -0.2580    0.8350 hc        1 7FA      0.046700
     46 H14A        5.0240   -0.4110   -0.8090 hc        1 7FA      0.046700
     47 H15         7.0340   -1.7330   -1.5730 hc        1 7FA      0.041700
     48 H15A        7.7560   -1.5850    0.0750 hc        1 7FA      0.041700
     49 H16         5.7470   -2.7420    1.0590 hc        1 7FA      0.039200
     50 H16A        5.0260   -2.8920   -0.5890 hc        1 7FA      0.039200
     51 H17         7.0270   -4.2210   -1.3430 hc        1 7FA      0.039200
     52 H17A        7.7470   -4.0710    0.3050 hc        1 7FA      0.039200
     53 H18         5.0350   -5.4130   -0.3670 hc        1 7FA      0.032700
     54 H18A        6.5880   -6.2610    0.0230 hc        1 7FA      0.032700
     55 H18B        5.7570   -5.2620    1.2860 hc        1 7FA      0.032700
     56 O1         -6.2590   -1.0130    1.4490 o         1 7FA     -0.840300
     57 F1         -6.6240   -0.6120   -0.9650 f         1 7FA     -0.338400
@<TRIPOS>BOND
     1    1    2 1   
     2    1    3 1   
     3    1   22 1   
     4    1   23 1   
     5    2    4 1   
     6    2   56 2   
     7    2   57 1   
     8    3    5 1   
     9    3   24 1   
    10    3   25 1   
    11    4   12 1   
    12    5    6 1   
    13    5   26 1   
    14    5   27 1   
    15    6    7 1   
    16    6   28 1   
    17    6   29 1   
    18    7    8 1   
    19    7   30 1   
    20    7   31 1   
    21    8    9 2   
    22    8   32 1   
    23    9   10 1   
    24    9   33 1   
    25   10   11 1   
    26   10   34 1   
    27   10   35 1   
    28   11   13 2   
    29   11   36 1   
    30   12   37 1   
    31   12   38 1   
    32   12   39 1   
    33   13   14 1   
    34   13   40 1   
    35   14   15 1   
    36   14   41 1   
    37   14   42 1   
    38   15   16 2   
    39   15   43 1   
    40   16   17 1   
    41   16   44 1   
    42   17   18 1   
    43   17   45 1   
    44   17   46 1   
    45   18   19 1   
    46   18   47 1   
    47   18   48 1   
    48   19   20 1   
    49   19   49 1   
    50   19   50 1   
    51   20   21 1   
    52   20   51 1   
    53   20   52 1   
    54   21   53 1   
    55   21   54 1   
    56   21   55 1   
@<TRIPOS>SUBSTRUCTURE
     1 7FA         1 TEMP              0 ****  ****    0 ROOT
