@<TRIPOS>MOLECULE
7FH
   16    16     1     0     0
SMALL
bcc


@<TRIPOS>ATOM
      1 S1          0.0590    0.2440   -0.1100 s         1 7FH     -0.460400
      2 C1          1.6440    0.1540   -0.0620 c         1 7FH      0.362600
      3 C2          2.4040    0.1020    1.1660 cc        1 7FH     -0.205200
      4 C3          3.7670    0.0280    1.1860 cd        1 7FH     -0.019000
      5 C4          4.4850   -0.0010   -0.0410 cd        1 7FH     -0.271200
      6 C6          6.0010   -0.0660   -0.0320 c3        1 7FH      0.705100
      7 F1          6.6150    1.1480    0.1600 f         1 7FH     -0.231967
      8 F2          6.5220   -0.8660    0.9550 f         1 7FH     -0.231967
      9 F3          6.5590   -0.5450   -1.1930 f         1 7FH     -0.231967
     10 C5          3.7970    0.0440   -1.2380 cc        1 7FH      0.081600
     11 N1          2.4220    0.1200   -1.2450 n         1 7FH     -0.126500
     12 O1          1.8690    0.1530   -2.4540 oh        1 7FH     -0.393100
     13 H1          1.8130    0.1260    2.0960 ha        1 7FH      0.183000
     14 H3          4.3300   -0.0170    2.1330 ha        1 7FH      0.165000
     15 H4          4.2990    0.0180   -2.2270 h4        1 7FH      0.199000
     16 H6          0.8860    0.2140   -2.3260 ho        1 7FH      0.474000
@<TRIPOS>BOND
     1    1    2 2   
     2    2    3 1   
     3    2   11 1   
     4    3    4 2   
     5    3   13 1   
     6    4    5 1   
     7    4   14 1   
     8    5    6 1   
     9    5   10 2   
    10    6    7 1   
    11    6    8 1   
    12    6    9 1   
    13   10   11 1   
    14   10   15 1   
    15   11   12 1   
    16   12   16 1   
@<TRIPOS>SUBSTRUCTURE
     1 7FH         1 TEMP              0 ****  ****    0 ROOT
