@<TRIPOS>MOLECULE
7FK
   53    54     1     0     0
SMALL
bcc


@<TRIPOS>ATOM
      1 O3         -0.1100   -0.1050    0.1570 o         1 7FK     -0.420100
      2 C19         1.1020    0.0080    0.0400 c         1 7FK      0.594700
      3 N           1.8910    0.1090    1.3470 n4        1 7FK     -0.593200
      4 C           2.9530   -0.9230    1.3910 c3        1 7FK      0.094100
      5 C18         1.8870    0.0620   -1.1950 ca        1 7FK     -0.265600
      6 C17         2.8210    1.1000   -1.4210 ca        1 7FK      0.212100
      7 O2          3.0440    1.9820   -0.3900 oh        1 7FK     -0.547100
      8 C16         3.4900    1.2300   -2.6350 ca        1 7FK     -0.244000
      9 C15         3.2330    0.2990   -3.6550 ca        1 7FK      0.250100
     10 O1          3.9280    0.4930   -4.8050 oh        1 7FK     -0.454100
     11 C14         2.3110   -0.7550   -3.4450 ca        1 7FK     -0.108600
     12 CL          2.0400   -1.8640   -4.7020 cl        1 7FK     -0.036400
     13 C13         1.6230   -0.8650   -2.2320 ca        1 7FK      0.093700
     14 C12         0.6380   -1.9670   -2.0390 c3        1 7FK     -0.175100
     15 C11        -0.7280   -1.6880   -2.6360 c         1 7FK      0.579100
     16 O          -1.0320   -0.5910   -3.1050 o         1 7FK     -0.498100
     17 C10        -1.6720   -2.8570   -2.6000 c3        1 7FK     -0.176400
     18 C9         -2.8320   -2.6130   -1.6550 c3        1 7FK     -0.076400
     19 C8         -2.4070   -2.6950   -0.2040 c3        1 7FK     -0.082400
     20 C7         -3.5740   -2.4560    0.7310 c3        1 7FK     -0.080400
     21 C6         -3.1330   -2.4080    2.1800 c3        1 7FK     -0.073400
     22 C5         -2.5690   -1.0480    2.5530 c3        1 7FK     -0.072200
     23 C4         -1.8510   -1.0980    3.8490 c2        1 7FK     -0.102200
     24 C3         -0.5270   -1.1920    4.0070 c2        1 7FK     -0.222200
     25 C2          0.4550   -1.3210    2.9000 c3        1 7FK     -0.052200
     26 C1          1.0150    0.0600    2.5640 c3        1 7FK      0.111800
     27 HC1         3.6760   -0.7420    0.5500 hx        1 7FK      0.100367
     28 HC2         2.4940   -1.9420    1.2810 hx        1 7FK      0.100367
     29 HC3         3.4910   -0.8610    2.3740 hx        1 7FK      0.100367
     30 H11C        0.1560    0.7730    2.3880 hx        1 7FK      0.105200
     31 H12C        1.6330    0.4350    3.4290 hx        1 7FK      0.105200
     32 H2          3.5700    2.7300   -0.7200 ho        1 7FK      0.472000
     33 H16         4.2030    2.0490   -2.8180 ha        1 7FK      0.186000
     34 H1          3.6560   -0.1670   -5.4700 ho        1 7FK      0.459000
     35 H121        1.0360   -2.9140   -2.5030 hc        1 7FK      0.087700
     36 H122        0.4800   -2.1840   -0.9470 hc        1 7FK      0.087700
     37 H101       -1.1290   -3.7930   -2.3070 hc        1 7FK      0.073700
     38 H102       -2.0730   -3.0050   -3.6410 hc        1 7FK      0.073700
     39 H91C       -3.2790   -1.6050   -1.8660 hc        1 7FK      0.066200
     40 H92C       -3.6250   -3.3820   -1.8540 hc        1 7FK      0.066200
     41 H81C       -1.6050   -1.9320   -0.0080 hc        1 7FK      0.031700
     42 H82C       -1.9620   -3.7050    0.0030 hc        1 7FK      0.031700
     43 H71C       -4.0880   -1.4970    0.4580 hc        1 7FK      0.054200
     44 H72C       -4.3220   -3.2830    0.6020 hc        1 7FK      0.054200
     45 H61C       -4.0100   -2.6340    2.8430 hc        1 7FK      0.049200
     46 H62C       -2.3630   -3.2020    2.3660 hc        1 7FK      0.049200
     47 H51C       -1.8900   -0.6810    1.7350 hc        1 7FK      0.055700
     48 H52C       -3.4120   -0.3070    2.6270 hc        1 7FK      0.055700
     49 H4         -2.5020   -1.0570    4.7420 ha        1 7FK      0.143000
     50 H3         -0.0870   -1.2080    5.0180 ha        1 7FK      0.138000
     51 H21C        1.2850   -2.0060    3.2200 hc        1 7FK      0.064200
     52 H22C       -0.0330   -1.7720    1.9930 hc        1 7FK      0.064200
     53 HN1         2.3440    1.0370    1.3410 hn        1 7FK      0.470800
@<TRIPOS>BOND
     1    1    2 2   
     2    2    3 1   
     3    2    5 1   
     4    3    4 1   
     5    3   26 1   
     6    3   53 1   
     7    4   27 1   
     8    4   28 1   
     9    4   29 1   
    10    5    6 ar  
    11    5   13 ar  
    12    6    7 1   
    13    6    8 ar  
    14    7   32 1   
    15    8    9 ar  
    16    8   33 1   
    17    9   10 1   
    18    9   11 ar  
    19   10   34 1   
    20   11   12 1   
    21   11   13 ar  
    22   13   14 1   
    23   14   15 1   
    24   14   35 1   
    25   14   36 1   
    26   15   16 2   
    27   15   17 1   
    28   17   18 1   
    29   17   37 1   
    30   17   38 1   
    31   18   19 1   
    32   18   39 1   
    33   18   40 1   
    34   19   20 1   
    35   19   41 1   
    36   19   42 1   
    37   20   21 1   
    38   20   43 1   
    39   20   44 1   
    40   21   22 1   
    41   21   45 1   
    42   21   46 1   
    43   22   23 1   
    44   22   47 1   
    45   22   48 1   
    46   23   24 2   
    47   23   49 1   
    48   24   25 1   
    49   24   50 1   
    50   25   26 1   
    51   25   51 1   
    52   25   52 1   
    53   26   30 1   
    54   26   31 1   
@<TRIPOS>SUBSTRUCTURE
     1 7FK         1 TEMP              0 ****  ****    0 ROOT
