@<TRIPOS>MOLECULE
7FK
   53    54     1     0     0
SMALL
bcc


@<TRIPOS>ATOM
      1 O3         -0.2530    0.5330    0.2710 o         1 7FK     -0.422100
      2 C19         0.9610    0.3790    0.2440 c         1 7FK      0.595700
      3 N           1.6720    0.7230    1.5580 nx        1 7FK     -0.588200
      4 C           1.5950    2.1880    1.7960 c3        1 7FK      0.090100
      5 C18         1.8020   -0.1030   -0.8530 ca        1 7FK     -0.255600
      6 C17         3.0580    0.4850   -1.1450 ca        1 7FK      0.213100
      7 O2          3.5070    1.4860   -0.3160 oh        1 7FK     -0.545100
      8 C16         3.8260    0.0810   -2.2340 ca        1 7FK     -0.249000
      9 C15         3.3440   -0.9420   -3.0670 ca        1 7FK      0.252100
     10 O1          4.1550   -1.2800   -4.1010 oh        1 7FK     -0.454100
     11 C14         2.0930   -1.5450   -2.7960 ca        1 7FK     -0.119600
     12 Cl          1.5490   -2.7780   -3.8310 cl        1 7FK     -0.040400
     13 C13         1.3160   -1.1240   -1.7090 ca        1 7FK      0.099700
     14 C12         0.0010   -1.7850   -1.4700 c3        1 7FK     -0.180100
     15 C11        -1.1100   -1.2250   -2.3420 c         1 7FK      0.582100
     16 O          -1.2370   -0.0120   -2.5130 o         1 7FK     -0.503100
     17 C10        -2.0350   -2.2340   -2.9600 c3        1 7FK     -0.174400
     18 C9         -3.3050   -2.4380   -2.1560 c3        1 7FK     -0.074400
     19 C8         -3.0770   -3.1480   -0.8360 c3        1 7FK     -0.085400
     20 C7         -2.9550   -2.1770    0.3200 c3        1 7FK     -0.089400
     21 C6         -2.2390   -2.8040    1.4990 c3        1 7FK     -0.075400
     22 C5         -1.9640   -1.7640    2.5700 c3        1 7FK     -0.068200
     23 C4         -1.0530   -2.2830    3.6200 c2        1 7FK     -0.112200
     24 C3          0.2790   -2.1600    3.6270 c2        1 7FK     -0.214200
     25 C2          1.0780   -1.5330    2.5440 c3        1 7FK     -0.056200
     26 C1          1.0640   -0.0160    2.7100 c3        1 7FK      0.106800
     27 HC1         0.5160    2.4990    1.8320 hx        1 7FK      0.105700
     28 HC2         2.1150    2.7240    0.9570 hx        1 7FK      0.105700
     29 HC3         2.0950    2.4350    2.7700 hx        1 7FK      0.105700
     30 H11C       -0.0000    0.3450    2.8170 hx        1 7FK      0.107700
     31 H12C        1.6370    0.2700    3.6380 hx        1 7FK      0.107700
     32 H2          4.3190    1.8670   -0.6910 ho        1 7FK      0.469000
     33 H16         4.7960    0.5500   -2.4630 ha        1 7FK      0.186000
     34 H1          3.7310   -1.9750   -4.6390 ho        1 7FK      0.459000
     35 H121        0.1020   -2.8920   -1.6480 hc        1 7FK      0.092700
     36 H122       -0.3330   -1.6680   -0.4010 hc        1 7FK      0.092700
     37 H101       -2.3170   -1.8590   -3.9830 hc        1 7FK      0.074200
     38 H102       -1.5050   -3.2130   -3.0930 hc        1 7FK      0.074200
     39 H91C       -4.0050   -3.0530   -2.7840 hc        1 7FK      0.063700
     40 H92C       -3.8010   -1.4460   -1.9830 hc        1 7FK      0.063700
     41 H81C       -3.9340   -3.8450   -0.6370 hc        1 7FK      0.046700
     42 H82C       -2.1530   -3.7830   -0.9030 hc        1 7FK      0.046700
     43 H71C       -2.3970   -1.2590   -0.0130 hc        1 7FK      0.048200
     44 H72C       -3.9750   -1.8360    0.6360 hc        1 7FK      0.048200
     45 H61C       -1.2680   -3.2530    1.1570 hc        1 7FK      0.047200
     46 H62C       -2.8580   -3.6360    1.9240 hc        1 7FK      0.047200
     47 H51C       -2.9350   -1.4500    3.0410 hc        1 7FK      0.051200
     48 H52C       -1.5260   -0.8490    2.0830 hc        1 7FK      0.051200
     49 H4         -1.5540   -2.8100    4.4520 ha        1 7FK      0.146000
     50 H3          0.8710   -2.5670    4.4640 ha        1 7FK      0.144000
     51 H21C        2.1330   -1.9160    2.5790 hc        1 7FK      0.062200
     52 H22C        0.6460   -1.8170    1.5440 hc        1 7FK      0.062200
     53 HN1         2.6590    0.4520    1.4680 hn        1 7FK      0.457800
@<TRIPOS>BOND
     1    1    2 2   
     2    2    3 1   
     3    2    5 1   
     4    3    4 1   
     5    3   26 1   
     6    3   53 1   
     7    4   27 1   
     8    4   28 1   
     9    4   29 1   
    10    5    6 ar  
    11    5   13 ar  
    12    6    7 1   
    13    6    8 ar  
    14    7   32 1   
    15    8    9 ar  
    16    8   33 1   
    17    9   10 1   
    18    9   11 ar  
    19   10   34 1   
    20   11   12 1   
    21   11   13 ar  
    22   13   14 1   
    23   14   15 1   
    24   14   35 1   
    25   14   36 1   
    26   15   16 2   
    27   15   17 1   
    28   17   18 1   
    29   17   37 1   
    30   17   38 1   
    31   18   19 1   
    32   18   39 1   
    33   18   40 1   
    34   19   20 1   
    35   19   41 1   
    36   19   42 1   
    37   20   21 1   
    38   20   43 1   
    39   20   44 1   
    40   21   22 1   
    41   21   45 1   
    42   21   46 1   
    43   22   23 1   
    44   22   47 1   
    45   22   48 1   
    46   23   24 2   
    47   23   49 1   
    48   24   25 1   
    49   24   50 1   
    50   25   26 1   
    51   25   51 1   
    52   25   52 1   
    53   26   30 1   
    54   26   31 1   
@<TRIPOS>SUBSTRUCTURE
     1 7FK         1 TEMP              0 ****  ****    0 ROOT
