@<TRIPOS>MOLECULE
7GA
   22    21     1     0     0
SMALL
bcc


@<TRIPOS>ATOM
      1 CA          1.5460    0.1690   -0.0450 c3        1 7GA     -0.188700
      2 C           0.0110   -0.0580   -0.0880 c         1 7GA      0.913600
      3 O          -0.5870   -0.4200    0.9650 o         1 7GA     -0.848800
      4 C8          2.0940    0.0070    1.3590 c3        1 7GA     -0.060400
      5 C9          3.5860   -0.3000    1.3960 c3        1 7GA     -0.072700
      6 C10         4.1670    0.0580    2.7490 c3        1 7GA     -0.082600
      7 C11         3.8530   -1.7590    1.0880 c3        1 7GA     -0.082600
      8 C6          1.8720    1.5250   -0.6260 c3        1 7GA     -0.064100
      9 OXT        -0.5670    0.1100   -1.2000 o         1 7GA     -0.848800
     10 HA          1.9930   -0.6220   -0.7090 hc        1 7GA      0.028700
     11 H81C        1.8970    0.9480    1.9380 hc        1 7GA      0.048200
     12 H82C        1.5250   -0.8140    1.8720 hc        1 7GA      0.048200
     13 H61C        1.5030    2.3380    0.0440 hc        1 7GA      0.015033
     14 H62C        1.3690    1.6310   -1.6180 hc        1 7GA      0.015033
     15 H63C        2.9740    1.6550   -0.7600 hc        1 7GA      0.015033
     16 H9          4.1010    0.3270    0.6140 hc        1 7GA      0.035700
     17 H101        4.0520    1.1510    2.9450 hc        1 7GA      0.021700
     18 H102        3.6390   -0.5010    3.5580 hc        1 7GA      0.021700
     19 H103        5.2530   -0.1980    2.7920 hc        1 7GA      0.021700
     20 H111        3.3890   -2.4130    1.8650 hc        1 7GA      0.021700
     21 H112        4.9520   -1.9600    1.0660 hc        1 7GA      0.021700
     22 H113        3.4190   -2.0310    0.0960 hc        1 7GA      0.021700
@<TRIPOS>BOND
     1    1    2 1   
     2    1    4 1   
     3    1    8 1   
     4    1   10 1   
     5    2    3 1   
     6    2    9 1   
     7    4    5 1   
     8    4   11 1   
     9    4   12 1   
    10    5    6 1   
    11    5    7 1   
    12    5   16 1   
    13    6   17 1   
    14    6   18 1   
    15    6   19 1   
    16    7   20 1   
    17    7   21 1   
    18    7   22 1   
    19    8   13 1   
    20    8   14 1   
    21    8   15 1   
@<TRIPOS>SUBSTRUCTURE
     1 7GA         1 TEMP              0 ****  ****    0 ROOT
