@<TRIPOS>MOLECULE
7GM
   42    43     1     0     0
SMALL
bcc


@<TRIPOS>ATOM
      1 C13         0.1410    0.2350    0.0390 c2        1 7GM     -0.297000
      2 C17         0.4030   -0.6640    2.3480 c3        1 7GM     -0.175000
      3 C14         1.5530    0.4100   -0.0250 c2        1 7GM      0.022000
      4 C16         1.8350   -0.4650    2.2180 c1        1 7GM     -0.122000
      5 C12        -0.4370   -0.2760    1.1690 c2        1 7GM      0.107000
      6 C15         2.3700    0.0750    1.0330 c2        1 7GM     -0.353000
      7 C9         -7.1740    4.5580   -1.8060 cx        1 7GM     -0.213500
      8 C10        -5.6920    4.4690   -2.0180 cx        1 7GM     -0.213500
      9 C3         -2.8730    1.4080    0.4060 c3        1 7GM     -0.161000
     10 C4         -4.0320    1.9420   -0.4300 c3        1 7GM     -0.064000
     11 C6         -4.0600   -0.6350    1.0460 c1        1 7GM      0.002000
     12 C8         -6.3010    3.9410   -0.7470 cx        1 7GM     -0.164000
     13 C2         -2.8050   -0.1250    0.4680 c3        1 7GM     -0.002000
     14 C1         -2.6100   -0.7840   -0.8970 c3        1 7GM     -0.219000
     15 C19         4.7460   -0.1870    2.3980 c3        1 7GM     -0.356000
     16 N5         -5.3080    1.9000    0.2510 n3        1 7GM     -0.312000
     17 O11        -1.7540   -0.5200    1.3980 os        1 7GM     -0.250000
     18 S18         4.0400    0.3200    0.8740 ss        1 7GM      0.214000
     19 H13        -0.4480    0.5180   -0.8440 ha        1 7GM      0.141000
     20 H14         1.9730    0.8240   -0.9580 ha        1 7GM      0.140000
     21 H17         0.0560   -0.0850    3.2560 hc        1 7GM      0.170500
     22 H16         0.2260   -1.7540    2.5880 hc        1 7GM      0.170500
     23 H92C       -6.1270    4.5090    0.1890 hc        1 7GM      0.132000
     24 H101       -7.8400    3.9060   -2.3990 hc        1 7GM      0.108750
     25 H102       -5.0860    5.3910   -1.9770 hc        1 7GM      0.108750
     26 H8         -5.3000    3.7530   -2.7630 hc        1 7GM      0.108750
     27 H31C       -3.8160    3.0250   -0.6700 h1        1 7GM      0.074000
     28 H32C       -2.9270    1.8040    1.4550 hc        1 7GM      0.108500
     29 H41C       -1.9160    1.7810   -0.0440 hc        1 7GM      0.108500
     30 H42C       -4.0520    1.3820   -1.4130 h1        1 7GM      0.074000
     31 H61C       -5.5280    0.9560    0.5270 hn        1 7GM      0.183000
     32 H62C       -3.9770   -1.1780    2.0000 ha        1 7GM      0.072000
     33 H11C       -3.5610   -1.2580   -1.2430 hc        1 7GM      0.101000
     34 H12C       -1.8180   -1.5700   -0.8280 hc        1 7GM      0.101000
     35 H13C       -2.3060   -0.0270   -1.6590 hc        1 7GM      0.101000
     36 H191        3.9830   -0.6150    3.0930 h1        1 7GM      0.114667
     37 H192        5.2270    0.6910    2.8840 h1        1 7GM      0.114667
     38 H193        5.5220   -0.9570    2.1860 h1        1 7GM      0.114667
     39 C7         -6.4020    2.4520   -0.5230 c3        1 7GM     -0.040000
     40 H91C       -7.6320    5.5430   -1.6100 hc        1 7GM      0.108750
     41 H71C       -7.3490    2.2540    0.0580 h1        1 7GM      0.070000
     42 H72C       -6.5100    1.9420   -1.5280 h1        1 7GM      0.070000
@<TRIPOS>BOND
     1    1    3 1   
     2    1    5 1   
     3    1   19 1   
     4    2    4 1   
     5    2    5 1   
     6    2   21 1   
     7    2   22 1   
     8    3    6 1   
     9    3   20 1   
    10    4    6 1   
    11    5   17 1   
    12    6   18 1   
    13    7    8 1   
    14    7   12 1   
    15    7   24 1   
    16    7   40 1   
    17    8   12 1   
    18    8   25 1   
    19    8   26 1   
    20    9   10 1   
    21    9   13 1   
    22    9   28 1   
    23    9   29 1   
    24   10   16 1   
    25   10   27 1   
    26   10   30 1   
    27   11   13 1   
    28   11   32 1   
    29   12   23 1   
    30   12   39 1   
    31   13   14 1   
    32   13   17 1   
    33   14   33 1   
    34   14   34 1   
    35   14   35 1   
    36   15   18 1   
    37   15   36 1   
    38   15   37 1   
    39   15   38 1   
    40   16   31 1   
    41   16   39 1   
    42   39   41 1   
    43   39   42 1   
@<TRIPOS>SUBSTRUCTURE
     1 7GM         1 TEMP              0 ****  ****    0 ROOT
