@<TRIPOS>MOLECULE
7GM
   42    43     1     0     0
SMALL
bcc


@<TRIPOS>ATOM
      1 C13        -0.2380   -1.3930    0.6790 c2        1 7GM     -0.192000
      2 C17        -0.8130   -0.4480    2.8980 c2        1 7GM     -0.247000
      3 C14         0.9590   -0.8340    0.4230 c2        1 7GM     -0.045000
      4 C16         0.8970    0.9690    2.1430 c1        1 7GM      0.238000
      5 C12        -1.1670   -0.8270    1.6490 c2        1 7GM      0.079000
      6 C15         1.3880    0.3950    1.0420 c2        1 7GM     -0.558000
      7 C9         -6.6570    4.0480   -1.9890 cx        1 7GM     -0.213500
      8 C10        -5.3060    4.5270   -1.5510 cx        1 7GM     -0.213500
      9 C3         -2.3440    1.5210    0.3580 c3        1 7GM     -0.207000
     10 C4         -3.5750    2.4060    0.6060 c3        1 7GM     -0.083000
     11 C6         -4.4300    0.2180    0.3460 c3        1 7GM     -0.079000
     12 C8         -6.0260    3.4760   -0.7480 cx        1 7GM     -0.162000
     13 C2         -2.8790    0.0890    0.2070 c3        1 7GM      0.064000
     14 C1         -2.4950   -0.5410   -1.1150 c3        1 7GM     -0.233000
     15 C19         4.0870    0.8100    0.8940 c3        1 7GM     -0.378000
     16 N5         -4.7990    1.6330    0.3800 n3        1 7GM     -0.234000
     17 O11        -2.5110   -0.7580    1.3130 os        1 7GM     -0.227000
     18 S18         2.5490    1.4390    0.3440 ss        1 7GM      0.255000
     19 H13        -0.5810   -2.2970    0.1520 ha        1 7GM      0.152000
     20 H14         1.6550   -1.2870   -0.3020 ha        1 7GM      0.139000
     21 H17         0.1480   -0.7420    3.3480 ha        1 7GM      0.143000
     22 H16        -1.5270    0.0400    3.5730 ha        1 7GM      0.143000
     23 H92C       -6.4450    3.7690    0.2350 hc        1 7GM      0.134000
     24 H101       -6.7340    3.4150   -2.8910 hc        1 7GM      0.109000
     25 H102       -4.4190    4.2380   -2.1430 hc        1 7GM      0.109000
     26 H8         -5.2040    5.5420   -1.1290 hc        1 7GM      0.109000
     27 H31C       -3.5960    2.7350    1.6820 h1        1 7GM      0.095000
     28 H32C       -1.8080    1.8410   -0.5690 hc        1 7GM      0.102500
     29 H41C       -1.6280    1.5910    1.2150 hc        1 7GM      0.102500
     30 H42C       -3.5400    3.3260   -0.0370 h1        1 7GM      0.095000
     31 H61C       -4.9360   -0.3420   -0.4830 h1        1 7GM      0.104500
     32 H62C       -4.7480   -0.2320    1.3270 h1        1 7GM      0.104500
     33 H11C       -2.8000   -1.6150   -1.1310 hc        1 7GM      0.086667
     34 H12C       -1.3910   -0.4800   -1.2770 hc        1 7GM      0.086667
     35 H13C       -3.0070   -0.0040   -1.9490 hc        1 7GM      0.086667
     36 H191        4.2050    0.8710    1.9990 h1        1 7GM      0.108333
     37 H192        4.8590    1.4560    0.4120 h1        1 7GM      0.108333
     38 H193        4.2500   -0.2450    0.5810 h1        1 7GM      0.108333
     39 C7         -5.5610    2.0430   -0.7940 c3        1 7GM     -0.049000
     40 H91C       -7.5280    4.7180   -1.8820 hc        1 7GM      0.109000
     41 H71C       -4.9860    1.8730   -1.7530 h1        1 7GM      0.071500
     42 H72C       -6.4790    1.3860   -0.8310 h1        1 7GM      0.071500
@<TRIPOS>BOND
     1    1    3 1   
     2    1    5 1   
     3    1   19 1   
     4    2    5 1   
     5    2   21 1   
     6    2   22 1   
     7    3    6 1   
     8    3   20 1   
     9    4    6 1   
    10    5   17 1   
    11    6   18 1   
    12    7    8 1   
    13    7   12 1   
    14    7   24 1   
    15    7   40 1   
    16    8   12 1   
    17    8   25 1   
    18    8   26 1   
    19    9   10 1   
    20    9   13 1   
    21    9   28 1   
    22    9   29 1   
    23   10   16 1   
    24   10   27 1   
    25   10   30 1   
    26   11   13 1   
    27   11   16 1   
    28   11   31 1   
    29   11   32 1   
    30   12   23 1   
    31   12   39 1   
    32   13   14 1   
    33   13   17 1   
    34   14   33 1   
    35   14   34 1   
    36   14   35 1   
    37   15   18 1   
    38   15   36 1   
    39   15   37 1   
    40   15   38 1   
    41   16   39 1   
    42   39   41 1   
    43   39   42 1   
@<TRIPOS>SUBSTRUCTURE
     1 7GM         1 TEMP              0 ****  ****    0 ROOT
