@<TRIPOS>MOLECULE
7GP
   36    36     1     0     0
SMALL
bcc


@<TRIPOS>ATOM
      1 C1          0.5240   -0.1540    0.4940 c3        1 7GP      0.250500
      2 C2          2.0380   -0.1540    0.4940 c3        1 7GP      0.087100
      3 O2          2.5030   -1.3280   -0.2010 oh        1 7GP     -0.597800
      4 C3          2.6010   -0.1540    1.8660 c3        1 7GP      0.108100
      5 O3          4.0390    0.0290    1.7830 oh        1 7GP     -0.604800
      6 C4          2.0250    0.9310    2.7130 c3        1 7GP      0.122100
      7 O4          2.4780    0.7570    4.0610 oh        1 7GP     -0.592800
      8 C5          0.5060    0.9280    2.7010 c3        1 7GP      0.108100
      9 O5         -0.0450    0.9240    1.3460 os        1 7GP     -0.453600
     10 C6          0.0140    2.1450    3.4190 c3        1 7GP      0.140400
     11 O6         -1.3880    2.0770    3.5520 oh        1 7GP     -0.591800
     12 N1          0.0740    0.0190   -0.8130 n         1 7GP     -0.533900
     13 C7         -0.9750   -0.7950   -1.3150 c         1 7GP      0.619100
     14 O7         -1.4790   -1.6420   -0.6060 o         1 7GP     -0.522100
     15 C8         -1.4500   -0.6200   -2.7410 c         1 7GP      0.562100
     16 O8         -0.8340    0.0960   -3.5040 o         1 7GP     -0.523000
     17 C9         -2.9020   -1.0740   -4.5430 c3        1 7GP      0.136400
     18 O9         -2.5980   -1.2980   -3.1860 os        1 7GP     -0.401900
     19 C10        -4.1500   -1.8450   -4.9140 c3        1 7GP     -0.103100
     20 H1          0.2090   -1.0170    0.8250 h2        1 7GP      0.101700
     21 H2          2.3540    0.6400    0.0220 h1        1 7GP      0.063700
     22 HO2         3.0050   -1.0840   -0.8910 ho        1 7GP      0.422000
     23 H3          2.4150   -1.0160    2.2850 h1        1 7GP      0.068700
     24 HO3         4.4480   -0.6740    2.1370 ho        1 7GP      0.428000
     25 H4          2.3420    1.7930    2.3810 h1        1 7GP      0.062700
     26 HO4         3.0720    1.3860    4.2580 ho        1 7GP      0.426000
     27 H5          0.1890    0.1340    3.1730 h1        1 7GP      0.076700
     28 H61         0.2540    2.9420    2.9090 h1        1 7GP      0.065200
     29 H62         0.4240    2.1890    4.3040 h1        1 7GP      0.065200
     30 HO6        -1.6650    2.7200    4.0980 ho        1 7GP      0.410000
     31 HN1         0.4370    0.6700   -1.3380 hn        1 7GP      0.325500
     32 H91        -3.0540   -0.1200   -4.6890 h1        1 7GP      0.056200
     33 H92        -2.1570   -1.3730   -5.0980 h1        1 7GP      0.056200
     34 H101       -4.3730   -1.6730   -5.8490 hc        1 7GP      0.053367
     35 H102       -4.8900   -1.5600   -4.3460 hc        1 7GP      0.053367
     36 H103       -3.9910   -2.8000   -4.7880 hc        1 7GP      0.053367
@<TRIPOS>BOND
     1    1    2 1   
     2    1    9 1   
     3    1   12 1   
     4    1   20 1   
     5    2    3 1   
     6    2    4 1   
     7    2   21 1   
     8    3   22 1   
     9    4    5 1   
    10    4    6 1   
    11    4   23 1   
    12    5   24 1   
    13    6    7 1   
    14    6    8 1   
    15    6   25 1   
    16    7   26 1   
    17    8    9 1   
    18    8   10 1   
    19    8   27 1   
    20   10   11 1   
    21   10   28 1   
    22   10   29 1   
    23   11   30 1   
    24   12   13 1   
    25   12   31 1   
    26   13   14 2   
    27   13   15 1   
    28   15   16 2   
    29   15   18 1   
    30   17   18 1   
    31   17   19 1   
    32   17   32 1   
    33   17   33 1   
    34   19   34 1   
    35   19   35 1   
    36   19   36 1   
@<TRIPOS>SUBSTRUCTURE
     1 7GP         1 TEMP              0 ****  ****    0 ROOT
