@<TRIPOS>MOLECULE
7GP
   37    37     1     0     0
SMALL
bcc


@<TRIPOS>ATOM
      1 C1          0.5060   -0.5070   -0.2040 c3        1 7GP      0.334300
      2 C2          1.9850   -0.1310    0.0700 c3        1 7GP      0.109100
      3 O2          2.7640   -1.2100   -0.3980 oh        1 7GP     -0.622800
      4 C3          2.1130    0.0870    1.5860 c3        1 7GP      0.118100
      5 O3          3.4490    0.4970    1.7980 oh        1 7GP     -0.594800
      6 C4          1.1200    1.1770    2.0380 c3        1 7GP      0.077100
      7 O4          1.1970    1.1690    3.4510 oh        1 7GP     -0.581800
      8 C5         -0.3080    0.8310    1.5800 c3        1 7GP      0.116100
      9 O5         -0.3270    0.5850    0.1570 os        1 7GP     -0.423600
     10 C6         -1.2740    2.0020    1.7830 c3        1 7GP      0.137400
     11 O6         -2.5780    1.4620    1.6840 oh        1 7GP     -0.595800
     12 N1          0.2660   -0.7370   -1.6770 n4        1 7GP     -0.676800
     13 C7         -1.0440   -1.4280   -1.9460 c         1 7GP      0.489100
     14 O7         -1.2940   -2.4590   -1.3530 o         1 7GP     -0.342100
     15 C8         -1.9060   -0.7200   -2.9770 c         1 7GP      0.590100
     16 O8         -1.5390    0.2660   -3.6140 o         1 7GP     -0.486000
     17 C9         -4.0170   -0.6980   -4.0770 c3        1 7GP      0.146400
     18 O9         -3.1020   -1.3030   -3.1080 os        1 7GP     -0.373900
     19 C10        -5.2590   -1.5480   -4.0230 c3        1 7GP     -0.112100
     20 H1          0.2150   -1.4540    0.3460 hx        1 7GP      0.128700
     21 H2          2.2730    0.8130   -0.4750 h1        1 7GP      0.088700
     22 HO2         3.6380   -1.1440    0.0200 ho        1 7GP      0.471000
     23 H3          1.9110   -0.8700    2.1440 h1        1 7GP      0.081700
     24 HO3         3.5470    0.6540    2.7490 ho        1 7GP      0.450000
     25 H4          1.4330    2.1730    1.6210 h1        1 7GP      0.076700
     26 HO4         0.8260    2.0020    3.7720 ho        1 7GP      0.428000
     27 H5         -0.6870   -0.0820    2.1180 h1        1 7GP      0.098700
     28 H61        -1.1150    2.7870    0.9970 h1        1 7GP      0.051200
     29 H62        -1.1000    2.4390    2.8030 h1        1 7GP      0.051200
     30 HO6        -3.1950    2.1740    1.9000 ho        1 7GP      0.427000
     31 HN1         0.2750    0.1700   -2.1700 hn        1 7GP      0.490300
     32 H91        -3.5170   -0.7200   -5.0790 h1        1 7GP      0.073700
     33 H92        -4.1990    0.3610   -3.7590 h1        1 7GP      0.073700
     34 H101       -5.7030   -1.5400   -2.9990 hc        1 7GP      0.070700
     35 H102       -5.0310   -2.6050   -4.3020 hc        1 7GP      0.070700
     36 H103       -6.0020   -1.1310   -4.7480 hc        1 7GP      0.070700
     37 H12         1.0470   -1.3210   -2.0180 hn        1 7GP      0.490300
@<TRIPOS>BOND
     1    1    2 1   
     2    1    9 1   
     3    1   12 1   
     4    1   20 1   
     5    2    3 1   
     6    2    4 1   
     7    2   21 1   
     8    3   22 1   
     9    4    5 1   
    10    4    6 1   
    11    4   23 1   
    12    5   24 1   
    13    6    7 1   
    14    6    8 1   
    15    6   25 1   
    16    7   26 1   
    17    8    9 1   
    18    8   10 1   
    19    8   27 1   
    20   10   11 1   
    21   10   28 1   
    22   10   29 1   
    23   11   30 1   
    24   12   13 1   
    25   12   31 1   
    26   12   37 1   
    27   13   14 2   
    28   13   15 1   
    29   15   16 2   
    30   15   18 1   
    31   17   18 1   
    32   17   19 1   
    33   17   32 1   
    34   17   33 1   
    35   19   34 1   
    36   19   35 1   
    37   19   36 1   
@<TRIPOS>SUBSTRUCTURE
     1 7GP         1 TEMP              0 ****  ****    0 ROOT
