@<TRIPOS>MOLECULE
7GP
   36    36     1     0     0
SMALL
bcc


@<TRIPOS>ATOM
      1 C1         -0.5770   -0.1690   -0.2350 c3        1 7GP      0.250500
      2 C2         -1.3520   -1.5020   -0.0360 c3        1 7GP      0.087100
      3 O2         -0.8120   -2.5340   -0.8390 oh        1 7GP     -0.597800
      4 C3         -2.7980   -1.3150   -0.5230 c3        1 7GP      0.108100
      5 O3         -3.5820   -2.4510   -0.2050 oh        1 7GP     -0.604800
      6 C4         -3.4480   -0.1220    0.1980 c3        1 7GP      0.122100
      7 O4         -4.7130    0.1670   -0.3670 oh        1 7GP     -0.592800
      8 C5         -2.5730    1.1260    0.0110 c3        1 7GP      0.108100
      9 O5         -1.2540    0.8720    0.4980 os        1 7GP     -0.453600
     10 C6         -3.1040    2.2960    0.8460 c3        1 7GP      0.140400
     11 O6         -2.4180    3.4900    0.5480 oh        1 7GP     -0.591800
     12 N1          0.7700   -0.2390    0.2860 n         1 7GP     -0.533900
     13 C7          1.8030    0.4130   -0.3800 c         1 7GP      0.619100
     14 O7          1.7250    0.8420   -1.5380 o         1 7GP     -0.522100
     15 C8          3.0980    0.5010    0.4130 c         1 7GP      0.562100
     16 O8          3.2090    0.8300    1.5940 o         1 7GP     -0.523000
     17 C9          5.4650    0.2800    0.3490 c3        1 7GP      0.136400
     18 O9          4.1870    0.1680   -0.3180 os        1 7GP     -0.401900
     19 C10         6.5000   -0.1130   -0.6760 c3        1 7GP     -0.103100
     20 H1         -0.5480    0.0930   -1.3350 h2        1 7GP      0.101700
     21 H2         -1.3480   -1.8050    1.0470 h1        1 7GP      0.063700
     22 HO2         0.0900   -2.6970   -0.5380 ho        1 7GP      0.422000
     23 H3         -2.8050   -1.1490   -1.6370 h1        1 7GP      0.068700
     24 HO3        -3.1560   -3.2080   -0.6280 ho        1 7GP      0.428000
     25 H4         -3.5620   -0.3620    1.2910 h1        1 7GP      0.062700
     26 HO4        -5.2220   -0.6550   -0.3290 ho        1 7GP      0.426000
     27 H5         -2.5290    1.4130   -1.0750 h1        1 7GP      0.076700
     28 H61        -4.1760    2.4850    0.5640 h1        1 7GP      0.065200
     29 H62        -3.0220    2.0550    1.9380 h1        1 7GP      0.065200
     30 HO6        -1.4860    3.3420    0.7530 ho        1 7GP      0.410000
     31 HN1         0.8370   -0.2650    1.2840 hn        1 7GP      0.325500
     32 H91         5.4630   -0.4050    1.2360 h1        1 7GP      0.056200
     33 H92         5.5920    1.3380    0.6970 h1        1 7GP      0.056200
     34 H101        6.4470    0.5600   -1.5650 hc        1 7GP      0.053367
     35 H102        7.5130   -0.0320   -0.2140 hc        1 7GP      0.053367
     36 H103        6.3350   -1.1620   -1.0200 hc        1 7GP      0.053367
@<TRIPOS>BOND
     1    1    2 1   
     2    1    9 1   
     3    1   12 1   
     4    1   20 1   
     5    2    3 1   
     6    2    4 1   
     7    2   21 1   
     8    3   22 1   
     9    4    5 1   
    10    4    6 1   
    11    4   23 1   
    12    5   24 1   
    13    6    7 1   
    14    6    8 1   
    15    6   25 1   
    16    7   26 1   
    17    8    9 1   
    18    8   10 1   
    19    8   27 1   
    20   10   11 1   
    21   10   28 1   
    22   10   29 1   
    23   11   30 1   
    24   12   13 1   
    25   12   31 1   
    26   13   14 2   
    27   13   15 1   
    28   15   16 2   
    29   15   18 1   
    30   17   18 1   
    31   17   19 1   
    32   17   32 1   
    33   17   33 1   
    34   19   34 1   
    35   19   35 1   
    36   19   36 1   
@<TRIPOS>SUBSTRUCTURE
     1 7GP         1 TEMP              0 ****  ****    0 ROOT
