@<TRIPOS>MOLECULE
7GP
   37    37     1     0     0
SMALL
bcc


@<TRIPOS>ATOM
      1 C1          0.5130   -0.5010   -0.2170 c3        1 7GP      0.334300
      2 C2          1.9910   -0.1130    0.0510 c3        1 7GP      0.109100
      3 O2          2.7770   -1.1820   -0.4290 oh        1 7GP     -0.622800
      4 C3          2.1250    0.0930    1.5690 c3        1 7GP      0.118100
      5 O3          3.4580    0.5140    1.7770 oh        1 7GP     -0.594800
      6 C4          1.1240    1.1700    2.0350 c3        1 7GP      0.077100
      7 O4          1.2090    1.1510    3.4480 oh        1 7GP     -0.581800
      8 C5         -0.3030    0.8150    1.5810 c3        1 7GP      0.116100
      9 O5         -0.3280    0.5800    0.1570 os        1 7GP     -0.423600
     10 C6         -1.2790    1.9750    1.8000 c3        1 7GP      0.137400
     11 O6         -2.5780    1.4230    1.7020 oh        1 7GP     -0.595800
     12 N1          0.2680   -0.7220   -1.6910 n4        1 7GP     -0.676800
     13 C7         -1.0380   -1.4210   -1.9580 c         1 7GP      0.489100
     14 O7         -1.2750   -2.4610   -1.3750 o         1 7GP     -0.342100
     15 C8         -1.9130   -0.7090   -2.9750 c         1 7GP      0.590100
     16 O8         -1.5590    0.2840   -3.6060 o         1 7GP     -0.486000
     17 C9         -4.0340   -0.6910   -4.0560 c3        1 7GP      0.146400
     18 O9         -3.1070   -1.2990   -3.1010 os        1 7GP     -0.373900
     19 C10        -5.2710   -1.5480   -3.9980 c3        1 7GP     -0.112100
     20 H1          0.2340   -1.4550    0.3260 hx        1 7GP      0.128700
     21 H2          2.2670    0.8370   -0.4870 h1        1 7GP      0.088700
     22 HO2         3.6530   -1.1110   -0.0150 ho        1 7GP      0.471000
     23 H3          1.9350   -0.8710    2.1200 h1        1 7GP      0.081700
     24 HO3         3.5600    0.6640    2.7290 ho        1 7GP      0.450000
     25 H4          1.4250    2.1730    1.6240 h1        1 7GP      0.076700
     26 HO4         0.8320    1.9780    3.7770 ho        1 7GP      0.428000
     27 H5         -0.6710   -0.1070    2.1140 h1        1 7GP      0.098700
     28 H61        -1.1310    2.7680    1.0190 h1        1 7GP      0.051200
     29 H62        -1.1040    2.4040    2.8220 h1        1 7GP      0.051200
     30 HO6        -3.2000    2.1270    1.9270 ho        1 7GP      0.427000
     31 HN1         1.0520   -1.2960   -2.0400 hn        1 7GP      0.490300
     32 H91        -3.5430   -0.7020   -5.0630 h1        1 7GP      0.073700
     33 H92        -4.2190    0.3640   -3.7280 h1        1 7GP      0.073700
     34 H101       -6.0220   -1.1290   -4.7120 hc        1 7GP      0.070367
     35 H102       -5.0400   -2.6010   -4.2870 hc        1 7GP      0.070367
     36 H103       -5.7060   -1.5500   -2.9690 hc        1 7GP      0.070367
     37 H12         0.2670    0.1890   -2.1770 hn        1 7GP      0.490300
@<TRIPOS>BOND
     1    1    2 1   
     2    1    9 1   
     3    1   12 1   
     4    1   20 1   
     5    2    3 1   
     6    2    4 1   
     7    2   21 1   
     8    3   22 1   
     9    4    5 1   
    10    4    6 1   
    11    4   23 1   
    12    5   24 1   
    13    6    7 1   
    14    6    8 1   
    15    6   25 1   
    16    7   26 1   
    17    8    9 1   
    18    8   10 1   
    19    8   27 1   
    20   10   11 1   
    21   10   28 1   
    22   10   29 1   
    23   11   30 1   
    24   12   13 1   
    25   12   31 1   
    26   12   37 1   
    27   13   14 2   
    28   13   15 1   
    29   15   16 2   
    30   15   18 1   
    31   17   18 1   
    32   17   19 1   
    33   17   32 1   
    34   17   33 1   
    35   19   34 1   
    36   19   35 1   
    37   19   36 1   
@<TRIPOS>SUBSTRUCTURE
     1 7GP         1 TEMP              0 ****  ****    0 ROOT
