@<TRIPOS>MOLECULE
7GP
   37    37     1     0     0
SMALL
bcc


@<TRIPOS>ATOM
      1 C1          0.5080   -0.5120   -0.2180 c3        1 7GP      0.334300
      2 C2          1.9900   -0.1390    0.0480 c3        1 7GP      0.109100
      3 O2          2.7650   -1.2140   -0.4360 oh        1 7GP     -0.622800
      4 C3          2.1300    0.0640    1.5650 c3        1 7GP      0.118100
      5 O3          3.4660    0.4710    1.7710 oh        1 7GP     -0.594800
      6 C4          1.1390    1.1500    2.0360 c3        1 7GP      0.077100
      7 O4          1.2270    1.1280    3.4480 oh        1 7GP     -0.581800
      8 C5         -0.2910    0.8090    1.5850 c3        1 7GP      0.116100
      9 O5         -0.3220    0.5770    0.1600 os        1 7GP     -0.423600
     10 C6         -1.2560    1.9780    1.8070 c3        1 7GP      0.137400
     11 O6         -2.5600    1.4390    1.7110 oh        1 7GP     -0.595800
     12 N1          0.2580   -0.7280   -1.6910 ny        1 7GP     -0.676800
     13 C7         -1.0550   -1.4150   -1.9570 c         1 7GP      0.489100
     14 O7         -1.3010   -2.4520   -1.3740 o         1 7GP     -0.342100
     15 C8         -1.9250   -0.6940   -2.9730 c         1 7GP      0.590100
     16 O8         -1.5630    0.2970   -3.6030 o         1 7GP     -0.486000
     17 C9         -4.0460   -0.6570   -4.0530 c3        1 7GP      0.146400
     18 O9         -3.1240   -1.2740   -3.0990 os        1 7GP     -0.373900
     19 C10        -5.2890   -1.5050   -3.9970 c3        1 7GP     -0.112100
     20 H1          0.2210   -1.4640    0.3250 hx        1 7GP      0.128700
     21 H2          2.2740    0.8100   -0.4900 h1        1 7GP      0.088700
     22 HO2         3.6420   -1.1520   -0.0240 ho        1 7GP      0.471000
     23 H3          1.9310   -0.8990    2.1150 h1        1 7GP      0.081700
     24 HO3         3.5720    0.6200    2.7230 ho        1 7GP      0.450000
     25 H4          1.4500    2.1500    1.6260 h1        1 7GP      0.076700
     26 HO4         0.8600    1.9580    3.7790 ho        1 7GP      0.428000
     27 H5         -0.6670   -0.1100    2.1160 h1        1 7GP      0.098700
     28 H61        -1.1020    2.7710    1.0270 h1        1 7GP      0.051200
     29 H62        -1.0750    2.4040    2.8300 h1        1 7GP      0.051200
     30 HO6        -3.1760    2.1490    1.9380 ho        1 7GP      0.427000
     31 HN1         1.0360   -1.3080   -2.0430 hn        1 7GP      0.490300
     32 H91        -3.5560   -0.6700   -5.0600 h1        1 7GP      0.073700
     33 H92        -4.2230    0.3990   -3.7230 h1        1 7GP      0.073700
     34 H101       -6.0380   -1.0800   -4.7100 hc        1 7GP      0.070367
     35 H102       -5.7240   -1.5060   -2.9680 hc        1 7GP      0.070367
     36 H103       -5.0660   -2.5600   -4.2880 hc        1 7GP      0.070367
     37 H12         0.2640    0.1840   -2.1760 hn        1 7GP      0.490300
@<TRIPOS>BOND
     1    1    2 1   
     2    1    9 1   
     3    1   12 1   
     4    1   20 1   
     5    2    3 1   
     6    2    4 1   
     7    2   21 1   
     8    3   22 1   
     9    4    5 1   
    10    4    6 1   
    11    4   23 1   
    12    5   24 1   
    13    6    7 1   
    14    6    8 1   
    15    6   25 1   
    16    7   26 1   
    17    8    9 1   
    18    8   10 1   
    19    8   27 1   
    20   10   11 1   
    21   10   28 1   
    22   10   29 1   
    23   11   30 1   
    24   12   13 1   
    25   12   31 1   
    26   12   37 1   
    27   13   14 2   
    28   13   15 1   
    29   15   16 2   
    30   15   18 1   
    31   17   18 1   
    32   17   19 1   
    33   17   32 1   
    34   17   33 1   
    35   19   34 1   
    36   19   35 1   
    37   19   36 1   
@<TRIPOS>SUBSTRUCTURE
     1 7GP         1 TEMP              0 ****  ****    0 ROOT
