@<TRIPOS>MOLECULE
7GU
   36    38     1     0     0
SMALL
bcc


@<TRIPOS>ATOM
      1 P           2.5470    3.2220   -4.7150 p5        1 7GU      1.331900
      2 OP1         3.6510    3.5170   -5.6820 o         1 7GU     -0.930500
      3 OP2         1.2700    4.0030   -4.8280 o         1 7GU     -0.930500
      4 O5'         3.1700    3.8050   -3.1890 os        1 7GU     -0.554200
      5 N9          0.2100    2.6150    0.9970 na        1 7GU     -0.033100
      6 C4         -0.6240    2.3720    2.0860 cc        1 7GU      0.126100
      7 N3         -0.4720    1.4170    3.0870 nc        1 7GU     -0.625100
      8 C2         -1.4290    1.4110    4.0230 cd        1 7GU      0.583800
      9 N2         -1.3250    0.5070    5.1440 nh        1 7GU     -0.865800
     10 N1         -2.5560    2.2600    4.0260 n         1 7GU     -0.496400
     11 C6         -2.7480    3.2520    3.0320 c         1 7GU      0.746100
     12 O6         -3.7640    3.9690    3.1450 o         1 7GU     -0.674500
     13 C5         -1.7350    3.2920    2.0120 cd        1 7GU     -0.253600
     14 C7         -1.5390    4.0940    0.8480 cd        1 7GU     -0.166000
     15 C8         -0.3460    3.6560    0.2510 cc        1 7GU     -0.091300
     16 C2'         1.2870    0.7100   -0.2590 c3        1 7GU     -0.128400
     17 C5'         2.2850    3.6850   -2.1550 c3        1 7GU      0.227400
     18 C4'         2.6530    2.4770   -1.2600 c3        1 7GU      0.054100
     19 O4'         2.3950    2.8000    0.1340 os        1 7GU     -0.433600
     20 C1'         1.4600    1.9020    0.7050 c3        1 7GU      0.246800
     21 C3'         1.8740    1.1900   -1.5960 c3        1 7GU      0.157100
     22 O3'         2.7310    0.1890   -2.0950 oh        1 7GU     -0.673800
     23 OP3         2.3510    1.7720   -4.3170 o         1 7GU     -0.930500
     24 HN21       -0.4110    0.0960    5.1870 hn        1 7GU      0.378300
     25 HN22       -2.0180   -0.2120    5.0680 hn        1 7GU      0.378300
     26 HN1        -3.1950    2.2280    4.7860 hn        1 7GU      0.320500
     27 H7         -2.1900    4.8840    0.4910 ha        1 7GU      0.160000
     28 H8          0.1650    4.0040   -0.6590 h4        1 7GU      0.226000
     29 H2'         0.2250    0.3960   -0.3770 hc        1 7GU      0.052700
     30 H2''        1.8720   -0.1590    0.1320 hc        1 7GU      0.052700
     31 H5'         2.3370    4.6050   -1.4990 h1        1 7GU     -0.003300
     32 H5''        1.2300    3.5700   -2.5370 h1        1 7GU     -0.003300
     33 H4'         3.7590    2.2940   -1.3170 h1        1 7GU      0.079700
     34 H1'         1.8840    1.5860    1.7030 h2        1 7GU      0.066700
     35 H3'         1.0640    1.4010   -2.3490 h1        1 7GU      0.104700
     36 HO3'        2.8990    0.4410   -3.0340 ho        1 7GU      0.501000
@<TRIPOS>BOND
     1    1    2 1   
     2    1    3 1   
     3    1    4 1   
     4    1   23 1   
     5    4   17 1   
     6    5    6 1   
     7    5   15 1   
     8    5   20 1   
     9    6    7 1   
    10    6   13 2   
    11    7    8 2   
    12    8    9 1   
    13    8   10 1   
    14    9   24 1   
    15    9   25 1   
    16   10   11 1   
    17   10   26 1   
    18   11   12 2   
    19   11   13 1   
    20   13   14 1   
    21   14   15 2   
    22   14   27 1   
    23   15   28 1   
    24   16   20 1   
    25   16   21 1   
    26   16   29 1   
    27   16   30 1   
    28   17   18 1   
    29   17   31 1   
    30   17   32 1   
    31   18   19 1   
    32   18   21 1   
    33   18   33 1   
    34   19   20 1   
    35   20   34 1   
    36   21   22 1   
    37   21   35 1   
    38   22   36 1   
@<TRIPOS>SUBSTRUCTURE
     1 7GU         1 TEMP              0 ****  ****    0 ROOT
