@<TRIPOS>MOLECULE
7GU
   36    32     1     0     0
SMALL
bcc


@<TRIPOS>ATOM
      1 P           0.4010    3.4850    2.3810 p3        1 7GU      2.547000
      2 OP1         0.1640    3.2250    3.9090 o         1 7GU     -1.238500
      3 OP2        -0.7800    4.2580    1.8030 os        1 7GU     -1.245000
      4 O5'         0.5390    2.1060    1.6280 os        1 7GU     -0.732000
      5 N9         -0.2060   -0.7990   -0.9640 n2        1 7GU     -0.156000
      6 C4         -0.4320   -1.6500    0.0970 c1        1 7GU      0.148000
      7 N3         -0.0790   -1.5600    1.5300 n1        1 7GU     -0.245000
      8 C2         -0.4980   -2.5890    2.4480 c1        1 7GU      0.257000
      9 N2         -0.1980   -2.4770    3.7950 n2        1 7GU     -0.317000
     10 N1         -1.2520   -3.6920    1.9820 n         1 7GU     -0.369000
     11 C6         -1.5980   -3.7850    0.5930 c2        1 7GU      0.390000
     12 O6         -2.1540   -4.8320    0.1500 o         1 7GU     -0.446000
     13 C5         -1.1280   -2.7240   -0.3670 c2        1 7GU     -0.323000
     14 C7         -1.3380   -2.5440   -1.7170 c1        1 7GU     -0.127000
     15 C8         -0.7660   -1.3540   -2.0780 c1        1 7GU     -0.163000
     16 C2'         0.4200    0.9850   -2.5820 c3        1 7GU     -0.187000
     17 C5'         0.0740    2.0190    0.2590 c3        1 7GU      0.064000
     18 C4'         1.2200    1.8970   -0.6360 c3        1 7GU     -0.033000
     19 O4'         1.6880    0.3070   -0.7600 os        1 7GU     -0.302000
     20 C1'         0.8920   -0.2330   -1.6140 c2        1 7GU      0.169000
     21 C3'         0.8770    2.2850   -1.8690 c3        1 7GU      0.026000
     22 O3'         2.0350    2.8620   -2.5560 oh        1 7GU     -0.394000
     23 OP3         1.6430    4.2780    2.2030 o         1 7GU     -1.238500
     24 HN21        0.4440   -1.9000    4.0670 hn        1 7GU      0.256500
     25 HN22       -0.5730   -3.0240    4.3760 hn        1 7GU      0.256500
     26 HN1        -1.4510   -4.3970    2.5610 hn        1 7GU      0.223000
     27 H7         -1.8050   -3.1510   -2.3030 DU        1 7GU      0.138500
     28 H8         -0.7130   -0.9910   -2.9950 DU        1 7GU      0.138500
     29 H2'         0.8580    0.9040   -3.4760 hc        1 7GU      0.089500
     30 H2''       -0.5990    0.9820   -2.6830 hc        1 7GU      0.089500
     31 H5'        -0.4280    2.8190    0.0350 h1        1 7GU      0.046000
     32 H5''       -0.4810    1.2650    0.1610 h1        1 7GU      0.046000
     33 H4'         1.9630    2.4390   -0.3040 h1        1 7GU      0.092000
     34 H1'         1.3670   -0.9140   -2.1330 h4        1 7GU      0.076000
     35 H3'         0.1430    2.9310   -1.8330 h1        1 7GU      0.181000
     36 HO3'        1.7520    3.5680   -3.1080 ho        1 7GU      0.279000
@<TRIPOS>BOND
     1    1    2 1   
     2    1    4 1   
     3    1   23 1   
     4    4   17 1   
     5    5    6 1   
     6    5   15 1   
     7    6   13 1   
     8    7    8 1   
     9    8   10 1   
    10    9   24 1   
    11    9   25 1   
    12   10   11 1   
    13   10   26 1   
    14   11   12 1   
    15   11   13 1   
    16   13   14 1   
    17   14   15 1   
    18   16   20 1   
    19   16   21 1   
    20   16   29 1   
    21   16   30 1   
    22   17   18 1   
    23   17   31 1   
    24   17   32 1   
    25   18   19 1   
    26   18   21 1   
    27   18   33 1   
    28   19   20 1   
    29   20   34 1   
    30   21   22 1   
    31   21   35 1   
    32   22   36 1   
@<TRIPOS>SUBSTRUCTURE
     1 7GU         1 TEMP              0 ****  ****    0 ROOT
