@<TRIPOS>MOLECULE
7HA
   51    47     1     0     0
SMALL
bcc


@<TRIPOS>ATOM
      1 C1          3.6320   -0.2180   -1.8980 c3        1 7HA     -0.160000
      2 C2          2.6780    0.6030   -2.7680 c2        1 7HA     -0.014000
      3 C3          1.5130    1.2460   -2.3310 c1        1 7HA     -0.153000
      4 N4          0.9500    1.8160   -3.3680 n2        1 7HA     -0.129000
      5 C5          1.7330    1.5540   -4.4830 c2        1 7HA      0.026000
      6 O6          2.7900    0.8060   -4.0850 os        1 7HA     -0.130000
      7 C7          1.5010    2.0540   -5.8120 c1        1 7HA     -0.009000
      8 C8          2.2150    3.1570   -6.2790 c1        1 7HA     -0.093000
      9 C9          1.9770    3.6520   -7.5970 c1        1 7HA     -0.133000
     10 C10         1.0380    3.0390   -8.4080 c1        1 7HA     -0.052000
     11 C11         0.3230    1.9350   -7.9400 c2        1 7HA     -0.135000
     12 C12         0.5560    1.4390   -6.6320 c1        1 7HA     -0.084000
     13 CL13        0.7230    3.6610   -9.9930 cl        1 7HA     -0.023000
     14 C14         1.0430    1.3650   -0.8920 c2        1 7HA      0.055000
     15 O15        -0.2960    0.7460   -0.7500 os        1 7HA     -0.228000
     16 C16        -0.7110    0.5660    0.6340 c2        1 7HA      0.022000
     17 C17        -0.9900    1.6730    1.4260 c2        1 7HA     -0.155000
     18 C18        -1.3990    1.5020    2.7230 c1        1 7HA     -0.121000
     19 C19        -1.5340    0.2310    3.2450 c1        1 7HA     -0.122000
     20 C20        -1.2560   -0.8720    2.4600 c1        1 7HA     -0.074000
     21 C21        -0.8460   -0.7040    1.1560 c1        1 7HA     -0.175000
     22 C22        -1.3460   -2.3190    3.0760 c3        1 7HA      0.009000
     23 N23        -2.1030   -2.2790    4.3020 n         1 7HA     -0.254000
     24 C24        -3.5660   -2.4470    4.2730 c3        1 7HA     -0.105000
     25 C25        -3.9350   -3.7740    4.9660 c2        1 7HA      0.326000
     26 O26        -5.1060   -4.1160    5.0490 o         1 7HA     -0.560500
     27 O27        -3.0500   -4.5480    5.2990 o         1 7HA     -0.560500
     28 C28        -1.4030   -2.2470    5.5960 c2        1 7HA      0.379000
     29 O29        -1.9660   -1.7940    6.5820 o         1 7HA     -0.432000
     30 O30        -0.0890   -2.7020    5.6950 os        1 7HA     -0.295000
     31 C31         0.5740   -2.2790    6.8910 c3        1 7HA     -0.046000
     32 H1          3.1510   -1.0230   -1.5410 hc        1 7HA      0.109667
     33 H1A         3.9350    0.3120   -1.1770 hc        1 7HA      0.109667
     34 H1B         4.3510   -0.4880   -2.4010 hc        1 7HA      0.109667
     35 H8          2.8800    3.5900   -5.7040 ha        1 7HA      0.156000
     36 H9          2.4560    4.3950   -7.9130 ha        1 7HA      0.148000
     37 H11        -0.3880    1.4720   -8.5570 ha        1 7HA      0.148000
     38 H12         0.0380    0.6440   -6.2960 ha        1 7HA      0.162000
     39 H14         1.6790    0.9040   -0.3020 h4        1 7HA      0.112000
     40 H14A        0.9960    2.2480   -0.6590 h4        1 7HA      0.112000
     41 H17        -0.7740    2.5510    1.1100 ha        1 7HA      0.131000
     42 H18        -1.5860    2.2470    3.2550 ha        1 7HA      0.132000
     43 H19        -1.8160    0.1150    4.1410 ha        1 7HA      0.211000
     44 H21        -0.6530   -1.4650    0.6140 ha        1 7HA      0.142000
     45 H22        -1.7680   -2.8930    2.4680 h1        1 7HA      0.124000
     46 H22A       -0.4590   -2.6440    3.2580 h1        1 7HA      0.124000
     47 H24        -3.9850   -1.7090    4.7420 h1        1 7HA      0.081500
     48 H24A       -3.8870   -2.4660    3.3150 h1        1 7HA      0.081500
     49 H31         1.2670   -1.5920    6.6650 h1        1 7HA      0.077333
     50 H31A        1.0110   -3.0640    7.3260 h1        1 7HA      0.077333
     51 H31B       -0.1000   -1.8790    7.5180 h1        1 7HA      0.077333
@<TRIPOS>BOND
     1    1    2 1   
     2    1   32 1   
     3    1   33 1   
     4    1   34 1   
     5    2    3 1   
     6    2    6 1   
     7    3    4 1   
     8    4    5 1   
     9    5    6 1   
    10    5    7 1   
    11    7    8 1   
    12    8   35 1   
    13    9   10 1   
    14    9   36 1   
    15   10   11 1   
    16   11   12 1   
    17   11   37 1   
    18   12   38 1   
    19   14   15 1   
    20   14   39 1   
    21   14   40 1   
    22   15   16 1   
    23   16   17 1   
    24   16   21 1   
    25   17   18 1   
    26   17   41 1   
    27   18   42 1   
    28   19   20 1   
    29   19   43 1   
    30   20   22 1   
    31   21   44 1   
    32   22   23 1   
    33   22   45 1   
    34   22   46 1   
    35   23   24 1   
    36   23   28 1   
    37   24   25 1   
    38   24   47 1   
    39   24   48 1   
    40   25   26 1   
    41   25   27 1   
    42   28   29 1   
    43   28   30 1   
    44   30   31 1   
    45   31   49 1   
    46   31   50 1   
    47   31   51 1   
@<TRIPOS>SUBSTRUCTURE
     1 7HA         1 TEMP              0 ****  ****    0 ROOT
