@<TRIPOS>MOLECULE
7HA
   51    53     1     0     0
SMALL
bcc


@<TRIPOS>ATOM
      1 C1         -0.4070    1.0820   -2.0660 c3        1 7HA     -0.158400
      2 C2         -1.3870    0.1760   -1.4720 cc        1 7HA      0.241700
      3 C3         -1.4470   -1.2010   -1.2270 cd        1 7HA      0.168300
      4 N4         -2.6690   -1.5070   -0.6080 nd        1 7HA     -0.627000
      5 C5         -3.3220   -0.3470   -0.4840 cc        1 7HA      0.492900
      6 O6         -2.5780    0.7360   -1.0070 os        1 7HA     -0.388800
      7 C7         -4.6230   -0.0410    0.0790 ca        1 7HA     -0.101500
      8 C8         -5.1070    1.2760    0.0690 ca        1 7HA     -0.094500
      9 C9         -6.3570    1.5690    0.6080 ca        1 7HA     -0.133500
     10 C10        -7.1270    0.5410    1.1600 ca        1 7HA      0.019400
     11 C11        -6.6540   -0.7740    1.1780 ca        1 7HA     -0.133500
     12 C12        -5.4030   -1.0640    0.6380 ca        1 7HA     -0.094500
     13 CL13       -8.6570    0.8960    1.8190 cl        1 7HA     -0.110400
     14 C14        -0.4270   -2.2230   -1.5750 c3        1 7HA      0.112100
     15 O15         0.0700   -2.9210   -0.4360 os        1 7HA     -0.329900
     16 C16         1.0280   -2.2870    0.3410 ca        1 7HA      0.107100
     17 C17         1.2940   -2.9220    1.5680 ca        1 7HA     -0.161000
     18 C18         2.2860   -2.4060    2.3960 ca        1 7HA     -0.126000
     19 C19         3.0020   -1.2690    2.0240 ca        1 7HA     -0.152000
     20 C20         2.7190   -0.6330    0.8130 ca        1 7HA     -0.081300
     21 C21         1.7340   -1.1420   -0.0390 ca        1 7HA     -0.178000
     22 C22         3.4480    0.6220    0.4120 c3        1 7HA      0.120300
     23 N23         4.6670    0.4260   -0.3450 n         1 7HA     -0.379800
     24 C24         4.5720    0.0460   -1.7410 c3        1 7HA     -0.046000
     25 C25         3.5940    0.9040   -2.5950 c         1 7HA      0.919600
     26 O26         2.3490    0.7990   -2.3760 o         1 7HA     -0.840300
     27 O27         4.0930    1.6110   -3.5040 o         1 7HA     -0.840300
     28 C28         5.7950    0.0800    0.3770 c         1 7HA      0.720100
     29 O29         5.9950    0.2160    1.6030 o         1 7HA     -0.636000
     30 O30         6.8640   -0.3960   -0.3730 os        1 7HA     -0.434900
     31 C31         8.0820   -0.5580    0.3470 c3        1 7HA      0.141700
     32 H1          0.1380    0.5800   -2.9090 hc        1 7HA      0.091700
     33 H1A        -0.8950    2.0150   -2.4360 hc        1 7HA      0.091700
     34 H1B         0.3790    1.3580   -1.3100 hc        1 7HA      0.091700
     35 H8         -4.4900    2.0790   -0.3670 ha        1 7HA      0.160000
     36 H9         -6.7310    2.6030    0.5980 ha        1 7HA      0.144500
     37 H11        -7.2620   -1.5790    1.6160 ha        1 7HA      0.144500
     38 H12        -5.0260   -2.0990    0.6530 ha        1 7HA      0.160000
     39 H14        -0.9000   -3.0530   -2.1760 h1        1 7HA      0.075200
     40 H14A        0.4030   -1.7500   -2.1660 h1        1 7HA      0.075200
     41 H17         0.7220   -3.8160    1.8500 ha        1 7HA      0.133000
     42 H18         2.5060   -2.9030    3.3510 ha        1 7HA      0.117000
     43 H19         3.8010   -0.8720    2.6700 ha        1 7HA      0.146000
     44 H21         1.5530   -0.6200   -1.0000 ha        1 7HA      0.201000
     45 H22         2.7650    1.2470   -0.2410 h1        1 7HA      0.086200
     46 H22A        3.7090    1.2020    1.3440 h1        1 7HA      0.086200
     47 H24         5.5960    0.1420   -2.1990 h1        1 7HA      0.044200
     48 H24A        4.2370   -1.0270   -1.8220 h1        1 7HA      0.044200
     49 H31         8.8000   -0.9130   -0.4330 h1        1 7HA      0.038367
     50 H31A        8.4060    0.4160    0.7850 h1        1 7HA      0.038367
     51 H31B        7.9530   -1.3140    1.1580 h1        1 7HA      0.038367
@<TRIPOS>BOND
     1    1    2 1   
     2    1   32 1   
     3    1   33 1   
     4    1   34 1   
     5    2    3 2   
     6    2    6 1   
     7    3    4 1   
     8    3   14 1   
     9    4    5 2   
    10    5    6 1   
    11    5    7 1   
    12    7    8 ar  
    13    7   12 ar  
    14    8    9 ar  
    15    8   35 1   
    16    9   10 ar  
    17    9   36 1   
    18   10   11 ar  
    19   10   13 1   
    20   11   12 ar  
    21   11   37 1   
    22   12   38 1   
    23   14   15 1   
    24   14   39 1   
    25   14   40 1   
    26   15   16 1   
    27   16   17 ar  
    28   16   21 ar  
    29   17   18 ar  
    30   17   41 1   
    31   18   19 ar  
    32   18   42 1   
    33   19   20 ar  
    34   19   43 1   
    35   20   21 ar  
    36   20   22 1   
    37   21   44 1   
    38   22   23 1   
    39   22   45 1   
    40   22   46 1   
    41   23   24 1   
    42   23   28 1   
    43   24   25 1   
    44   24   47 1   
    45   24   48 1   
    46   25   26 1   
    47   25   27 1   
    48   28   29 2   
    49   28   30 1   
    50   30   31 1   
    51   31   49 1   
    52   31   50 1   
    53   31   51 1   
@<TRIPOS>SUBSTRUCTURE
     1 7HA         1 TEMP              0 ****  ****    0 ROOT
