@<TRIPOS>MOLECULE
7HD
   46    50     1     0     0
SMALL
bcc


@<TRIPOS>ATOM
      1 C01         0.3890    1.1690   -0.3830 c3        1 7HD     -0.142400
      2 C02         1.6370    0.5080   -0.0070 cc        1 7HD      0.277000
      3 C03         2.2480    0.1520    1.1780 cd        1 7HD     -0.361600
      4 C04         3.4950   -0.4890    0.7600 cd        1 7HD      0.281600
      5 C05         4.4950   -1.0360    1.7240 c3        1 7HD      0.033000
      6 N06         5.5270   -1.8710    1.1440 na        1 7HD      0.083400
      7 C07         6.7870   -1.4020    0.7480 cc        1 7HD     -0.087300
      8 C08         7.4220   -2.4680    0.0900 cd        1 7HD     -0.230300
      9 C09         8.7280   -2.5200   -0.5040 ca        1 7HD      0.058000
     10 C10         9.8980   -2.0370    0.0910 ca        1 7HD     -0.098900
     11 Cl          9.8810   -1.3110    1.6250 cl        1 7HD     -0.084400
     12 C12        11.1520   -2.1500   -0.5760 ca        1 7HD      0.393200
     13 N13        11.3470   -2.6940   -1.7780 nb        1 7HD     -0.597000
     14 C14        10.2300   -3.1700   -2.3990 ca        1 7HD      0.531300
     15 N15        10.1060   -3.7820   -3.6710 nc        1 7HD     -0.628700
     16 C16         8.7840   -4.0540   -3.8120 cd        1 7HD      0.536400
     17 C17         8.1670   -4.6730   -4.9540 cd        1 7HD     -0.314200
     18 C18         6.7910   -4.8840   -5.1740 cc        1 7HD     -0.121300
     19 N19         6.6810   -5.5110   -6.4120 na        1 7HD      0.101400
     20 C20         5.4330   -5.9040   -7.0220 c3        1 7HD      0.037600
     21 N21         7.8820   -5.7090   -6.9870 nc        1 7HD     -0.517800
     22 C22         8.8250   -5.2130   -6.1350 cd        1 7HD      0.380600
     23 C23        10.2780   -5.2270   -6.3840 c3        1 7HD     -0.130400
     24 N24         8.0180   -3.6710   -2.6810 na        1 7HD     -0.272300
     25 C25         8.9040   -3.0950   -1.7780 ca        1 7HD     -0.179500
     26 C26         6.4440   -3.5450    0.1180 cd        1 7HD      0.308200
     27 N27         5.3170   -3.1410    0.7450 nc        1 7HD     -0.495800
     28 N28         3.5640   -0.4840   -0.5860 nc        1 7HD     -0.335300
     29 O29         2.4860    0.0960   -1.0680 os        1 7HD     -0.119100
     30 H011        0.5900    2.0020   -1.1030 hc        1 7HD      0.068700
     31 H012       -0.1130    1.5820    0.5270 hc        1 7HD      0.068700
     32 H013       -0.3000    0.4370   -0.8780 hc        1 7HD      0.068700
     33 H03         1.9090    0.2940    2.1970 ha        1 7HD      0.177000
     34 H051        5.0080   -0.1700    2.2340 h1        1 7HD      0.086200
     35 H052        3.9340   -1.6380    2.4990 h1        1 7HD      0.086200
     36 H07         7.1330   -0.3910    0.9660 h4        1 7HD      0.188000
     37 H26         6.5660   -4.5600   -0.2630 h4        1 7HD      0.047100
     38 H12        12.0650   -1.7660   -0.0820 h4        1 7HD      0.036100
     39 H24         7.0360   -3.6930   -2.5950 hn        1 7HD      0.312700
     40 H18         5.9210   -4.6400   -4.5640 h4        1 7HD      0.175000
     41 H201        4.5920   -5.6210   -6.3370 h1        1 7HD      0.062033
     42 H202        5.3070   -5.3830   -8.0080 h1        1 7HD      0.062033
     43 H203        5.4230   -7.0140   -7.1930 h1        1 7HD      0.062033
     44 H231       10.7940   -5.7700   -5.5520 hc        1 7HD      0.064033
     45 H232       10.6620   -4.1760   -6.4070 hc        1 7HD      0.064033
     46 H233       10.5310   -5.7260   -7.3520 hc        1 7HD      0.064033
@<TRIPOS>BOND
     1    1    2 1   
     2    1   30 1   
     3    1   31 1   
     4    1   32 1   
     5    2    3 2   
     6    2   29 1   
     7    3    4 1   
     8    3   33 1   
     9    4    5 1   
    10    4   28 2   
    11    5    6 1   
    12    5   34 1   
    13    5   35 1   
    14    6    7 1   
    15    6   27 1   
    16    7    8 2   
    17    7   36 1   
    18    8    9 1   
    19    8   26 1   
    20    9   10 ar  
    21    9   25 ar  
    22   10   11 1   
    23   10   12 ar  
    24   12   13 ar  
    25   12   38 1   
    26   13   14 ar  
    27   14   15 1   
    28   14   25 ar  
    29   15   16 2   
    30   16   17 1   
    31   16   24 1   
    32   17   18 2   
    33   17   22 1   
    34   18   19 1   
    35   18   40 1   
    36   19   20 1   
    37   19   21 1   
    38   20   41 1   
    39   20   42 1   
    40   20   43 1   
    41   21   22 2   
    42   22   23 1   
    43   23   44 1   
    44   23   45 1   
    45   23   46 1   
    46   24   25 1   
    47   24   39 1   
    48   26   27 2   
    49   26   37 1   
    50   28   29 1   
@<TRIPOS>SUBSTRUCTURE
     1 7HD         1 TEMP              0 ****  ****    0 ROOT
