@<TRIPOS>MOLECULE
7HI
   76    71     1     0     0
SMALL
bcc


@<TRIPOS>ATOM
      1 N1         -1.4120    0.8870   -0.2320 na        1 7HI      0.175000
      2 C4          1.8450    0.1290    2.9770 c1        1 7HI     -0.229000
      3 C5         -0.5510   -0.1020   -0.8800 c2        1 7HI      0.039000
      4 C7         -1.1880    1.2720    1.0240 c2        1 7HI     -0.325000
      5 C8         -2.0290    2.2070    1.8020 c3        1 7HI     -0.127000
      6 C10        -2.2420    3.5140    3.9220 c3        1 7HI     -0.189000
      7 C13        -3.0190    3.7000   -0.8430 c1        1 7HI     -0.064000
      8 C15         2.7880   -3.0230  -11.6400 c3        1 7HI     -0.205000
      9 C17         0.5450   -1.5260   -7.4000 c3        1 7HI     -0.183000
     10 C20         0.8050   -1.3810   -8.8250 c1        1 7HI     -0.137000
     11 C21         2.3420   -1.7310  -13.6980 c2        1 7HI     -0.260000
     12 C22         1.8850   -2.0880  -10.9150 c2        1 7HI      0.028000
     13 C24         1.5160   -0.8900  -13.0000 c2        1 7HI      0.002000
     14 C26         2.0570   -3.5130   -7.4130 c2        1 7HI     -0.350000
     15 O2         -3.7980    0.7320   -4.3420 o         1 7HI     -0.109000
     16 N2          1.0130   -2.8250   -5.3500 n3        1 7HI     -0.356000
     17 C32         1.2250   -2.6630   -6.6770 c2        1 7HI      0.145000
     18 C23         2.2600   -3.3140   -8.7860 c2        1 7HI      0.072000
     19 C29         1.6550   -2.2730   -9.4910 c2        1 7HI     -0.225000
     20 C18         1.2870   -1.0690  -11.6010 c2        1 7HI     -0.200000
     21 C16         3.0010   -2.8100  -13.0700 c1        1 7HI     -0.118000
     22 C2         -2.2510    0.5470   -2.3760 c2        1 7HI     -0.144000
     23 C12        -2.3880    1.2790   -1.1100 c2        1 7HI     -0.287000
     24 C27         0.5140   -0.7150   -0.3500 c2        1 7HI     -0.190000
     25 C25         2.3460   -0.9370    2.7640 c1        1 7HI     -0.229000
     26 C19         1.5740   -3.6930   -2.2680 c3        1 7HI     -0.281000
     27 C14        -0.5570   -1.1220   -3.1770 c1        1 7HI      0.172000
     28 C1         -1.0710   -0.3200   -2.2570 c2        1 7HI     -0.258000
     29 C9         -1.4460    2.4260    3.1980 c3        1 7HI      0.026000
     30 O4         -0.0670    2.7640    3.1540 oh        1 7HI     -0.344000
     31 C11        -2.0290    3.4830    5.3970 c2        1 7HI      0.025000
     32 O3         -0.7450    3.6860    5.8660 oh        1 7HI     -0.301000
     33 C35        -3.0100    3.3220    6.2980 c2        1 7HI     -0.271000
     34 C36         1.1050    4.3320    7.5880 c1        1 7HI      0.432000
     35 O7          0.6200    4.5590    8.6490 o         1 7HI     -0.217000
     36 O6          1.6110    4.1070    6.5330 o         1 7HI     -0.217000
     37 H4          1.9270    2.9530    4.4420 ha        1 7HI      0.002500
     38 H4A         1.9360    3.5860    4.2000 ha        1 7HI      0.002500
     39 H6         -4.1760    2.2530   -1.7430 hc        1 7HI      0.151000
     40 H6A        -4.0220    2.0970    0.0420 hc        1 7HI      0.151000
     41 H7         -5.3060    2.6000    2.1190 ha        1 7HI      0.002500
     42 H7A        -4.9390    3.1510    1.9730 ha        1 7HI      0.002500
     43 H8         -3.0720    1.8020    1.9200 hc        1 7HI      0.094500
     44 H8A        -0.3000    0.8620    1.5380 h4        1 7HI      0.172000
     45 H10        -3.3340    3.3820    3.6960 hc        1 7HI      0.110000
     46 H10A       -1.9340    4.5210    3.5290 hc        1 7HI      0.110000
     47 H13        -3.4860    4.9800    1.7620 ha        1 7HI      0.002500
     48 H13A       -3.6100    4.9760    1.0940 ha        1 7HI      0.002500
     49 H13B       -1.9640    3.9320   -1.0550 ha        1 7HI      0.048000
     50 H17         0.8370   -0.5480   -6.9160 hc        1 7HI      0.154000
     51 H20        -0.5750   -1.6290   -7.2860 hc        1 7HI      0.154000
     52 H24         1.0030   -0.0480  -13.4950 ha        1 7HI      0.122000
     53 H26         2.9310   -4.0260   -9.3020 ha        1 7HI      0.129000
     54 HN2         0.4170   -2.2070   -4.8450 hn        1 7HI      0.241500
     55 H23         2.5680   -4.3550   -6.9240 ha        1 7HI      0.133000
     56 H18         0.6150   -0.3690  -11.0750 ha        1 7HI      0.165000
     57 H16         2.4010   -4.0800  -11.5340 hc        1 7HI      0.149000
     58 H27         1.0800   -1.4520   -0.9400 ha        1 7HI      0.154000
     59 H27A        0.8900   -0.5410    0.6710 ha        1 7HI      0.154000
     60 H25         1.4070    1.0800    3.1820 ha        1 7HI      0.230000
     61 H25A        0.6730   -3.0840   -2.5140 hc        1 7HI      0.072000
     62 H19         1.6400   -3.8270   -1.1660 hc        1 7HI      0.072000
     63 H19A        2.7960   -1.8810    2.5870 ha        1 7HI      0.230000
     64 H14         2.4860   -3.1730   -2.6340 hc        1 7HI      0.072000
     65 H14A        1.4900   -4.6890   -2.7540 hc        1 7HI      0.072000
     66 H9         -2.1140    3.2040    1.2810 hc        1 7HI      0.094500
     67 HO4         0.0410    3.5010    2.5410 ho        1 7HI      0.211000
     68 H11        -1.4660    1.4640    3.7860 h1        1 7HI      0.131000
     69 HO3        -0.1170    3.5190    5.1420 ho        1 7HI      0.243000
     70 H35        -4.0540    3.2010    5.9920 ha        1 7HI      0.129000
     71 H35A       -2.8120    3.3220    7.3750 ha        1 7HI      0.129000
     72 C6         -3.4220    2.3110   -0.8960 c3        1 7HI     -0.155000
     73 C3         -3.0680    0.6310   -3.4090 c1        1 7HI      0.236000
     74 H21         2.5110   -1.5830  -14.7760 ha        1 7HI      0.138000
     75 H22         1.4500   -3.5640   -4.8550 hn        1 7HI      0.241500
     76 H15         3.8130   -3.0050  -11.1630 hc        1 7HI      0.149000
@<TRIPOS>BOND
     1    1    3 1   
     2    1    4 1   
     3    1   23 1   
     4    2   25 1   
     5    2   60 1   
     6    3   24 1   
     7    3   28 1   
     8    4    5 1   
     9    4   44 1   
    10    5   29 1   
    11    5   43 1   
    12    5   66 1   
    13    6   29 1   
    14    6   31 1   
    15    6   45 1   
    16    6   46 1   
    17    7   49 1   
    18    7   72 1   
    19    8   12 1   
    20    8   21 1   
    21    8   57 1   
    22    8   76 1   
    23    9   10 1   
    24    9   17 1   
    25    9   50 1   
    26    9   51 1   
    27   10   19 1   
    28   11   13 1   
    29   11   21 1   
    30   11   74 1   
    31   12   19 1   
    32   12   20 1   
    33   13   20 1   
    34   13   52 1   
    35   14   17 1   
    36   14   18 1   
    37   14   55 1   
    38   15   73 1   
    39   16   17 1   
    40   16   54 1   
    41   16   75 1   
    42   18   19 1   
    43   18   53 1   
    44   20   56 1   
    45   22   23 1   
    46   22   28 1   
    47   22   73 1   
    48   23   72 1   
    49   24   58 1   
    50   24   59 1   
    51   25   63 1   
    52   26   61 1   
    53   26   62 1   
    54   26   64 1   
    55   26   65 1   
    56   27   28 1   
    57   29   30 1   
    58   29   68 1   
    59   30   67 1   
    60   31   32 1   
    61   31   33 1   
    62   32   69 1   
    63   33   70 1   
    64   33   71 1   
    65   34   35 1   
    66   34   36 1   
    67   37   38 1   
    68   39   72 1   
    69   40   72 1   
    70   41   42 1   
    71   47   48 1   
@<TRIPOS>SUBSTRUCTURE
     1 7HI         1 TEMP              0 ****  ****    0 ROOT
