@<TRIPOS>MOLECULE
7HI
   75    78     1     0     0
SMALL
bcc


@<TRIPOS>ATOM
      1 N1          1.4890   -0.6020    0.3390 na        1 7HI     -0.035100
      2 C4          2.2700   -4.0660   -0.8770 c3        1 7HI     -0.070400
      3 C5          1.3170   -1.9540    0.0090 cc        1 7HI     -0.095600
      4 C7          2.7150   -0.0440    0.8470 c3        1 7HI      0.026300
      5 C8          3.8250    0.1470   -0.1910 c3        1 7HI     -0.101400
      6 C10         6.2980    0.4990   -0.4680 c3        1 7HI     -0.122400
      7 C13         0.8110    2.3660   -0.7760 c3        1 7HI     -0.096100
      8 C15        -8.8880    2.1790    1.0000 ca        1 7HI     -0.124500
      9 C17        -4.9790    0.1300   -1.0140 ca        1 7HI     -0.182500
     10 C20        -6.3330    0.4420   -0.9920 ca        1 7HI     -0.088500
     11 C21       -11.1370    1.7570    0.2200 ca        1 7HI     -0.137000
     12 C22        -8.4020    1.1300    0.2050 cp        1 7HI     -0.018000
     13 C24       -10.6620    0.7120   -0.5730 ca        1 7HI     -0.131000
     14 C26        -4.8780    0.5290    1.3790 ca        1 7HI     -0.182500
     15 O2         -2.4710   -0.8290   -1.9460 o         1 7HI     -0.587100
     16 N2         -2.8530   -0.1300    0.2270 n         1 7HI     -0.479100
     17 C32        -4.2180    0.1650    0.1760 ca        1 7HI      0.091600
     18 C23        -6.2290    0.8420    1.3790 ca        1 7HI     -0.088500
     19 C29        -6.9800    0.8030    0.1970 cp        1 7HI     -0.087000
     20 C18        -9.3050    0.3990   -0.5830 ca        1 7HI     -0.124500
     21 C16       -10.2460    2.4890    1.0050 ca        1 7HI     -0.131000
     22 C2         -0.6380   -0.8490   -0.4130 cd        1 7HI     -0.235600
     23 C12         0.3020    0.0840    0.0780 cc        1 7HI     -0.071600
     24 C27         2.3580   -2.9950    0.1940 c3        1 7HI     -0.020100
     25 C25         1.2260   -5.1270   -0.6010 c3        1 7HI     -0.075400
     26 C19        -0.1200   -4.5950   -0.1530 c3        1 7HI     -0.073400
     27 C14        -0.5940   -3.3890   -0.9420 c3        1 7HI     -0.003100
     28 C1          0.0050   -2.1320   -0.4680 cd        1 7HI     -0.107300
     29 C9          5.1860    0.1240    0.5040 c3        1 7HI      0.154100
     30 O4          5.3480   -1.1920    1.0210 oh        1 7HI     -0.642800
     31 C11         7.5850    0.8900    0.2590 c3        1 7HI      0.172100
     32 O3          8.0790   -0.2860    0.8870 oh        1 7HI     -0.677800
     33 C35         8.6000    1.4840   -0.7040 c3        1 7HI     -0.236400
     34 C36         9.8110    2.0640    0.0460 c         1 7HI      0.910600
     35 O7         10.3190    3.1350   -0.3840 o         1 7HI     -0.843800
     36 O6         10.2440    1.4290    1.0560 o         1 7HI     -0.843800
     37 H4          2.0560   -3.5810   -1.8660 hc        1 7HI      0.046700
     38 H4A         3.2710   -4.5670   -0.9620 hc        1 7HI      0.046700
     39 H6          0.4840    1.8410    1.2980 hc        1 7HI      0.051200
     40 H6A        -0.9860    1.7670    0.2500 hc        1 7HI      0.051200
     41 H7          2.4830    0.9510    1.3220 h1        1 7HI      0.070700
     42 H7A         3.0960   -0.7420    1.6520 h1        1 7HI      0.070700
     43 H8          3.8000   -0.6680   -0.9600 hc        1 7HI      0.058200
     44 H8A         3.6970    1.1250   -0.7200 hc        1 7HI      0.058200
     45 H10         6.5050   -0.3690   -1.1440 hc        1 7HI      0.052700
     46 H10A        5.9700    1.3670   -1.0940 hc        1 7HI      0.052700
     47 H13         1.9170    2.2180   -0.7270 hc        1 7HI      0.042367
     48 H13A        0.4620    2.0780   -1.7960 hc        1 7HI      0.042367
     49 H13B        0.5910    3.4490   -0.6170 hc        1 7HI      0.042367
     50 H17        -4.5070   -0.1460   -1.9720 ha        1 7HI      0.152000
     51 H20        -6.9030    0.4130   -1.9340 ha        1 7HI      0.131500
     52 H24       -11.3610    0.1320   -1.1930 ha        1 7HI      0.127500
     53 H26        -4.3220    0.5650    2.3280 ha        1 7HI      0.152000
     54 HN2        -2.4230   -0.0340    1.1220 hn        1 7HI      0.319500
     55 H23        -6.7190    1.1160    2.3260 ha        1 7HI      0.131500
     56 H18        -8.9360   -0.4300   -1.2050 ha        1 7HI      0.135000
     57 H16       -10.6160    3.3150    1.6300 ha        1 7HI      0.127500
     58 H27         2.2270   -3.4590    1.2100 hc        1 7HI      0.067700
     59 H27A        3.3880   -2.5360    0.1730 hc        1 7HI      0.067700
     60 H25         1.0880   -5.7330   -1.5370 hc        1 7HI      0.032700
     61 H25A        1.6100   -5.8250    0.1900 hc        1 7HI      0.032700
     62 H19        -0.8780   -5.4160   -0.2550 hc        1 7HI      0.036700
     63 H19A       -0.0680   -4.3250    0.9350 hc        1 7HI      0.036700
     64 H14        -0.3470   -3.5290   -2.0310 hc        1 7HI      0.051200
     65 H14A       -1.7130   -3.3110   -0.8700 hc        1 7HI      0.051200
     66 H9          5.1810    0.8460    1.3720 h1        1 7HI      0.032700
     67 HO4         6.2860   -1.3020    1.2320 ho        1 7HI      0.446000
     68 H11         7.3500    1.6470    1.0620 h1        1 7HI      0.028700
     69 HO3         8.9800   -0.0790    1.1970 ho        1 7HI      0.469000
     70 H35         8.9710    0.6900   -1.3980 hc        1 7HI      0.037700
     71 H35A        8.1220    2.2920   -1.3110 hc        1 7HI      0.037700
     72 C6          0.1130    1.5410    0.2790 c3        1 7HI     -0.018100
     73 C3         -2.0340   -0.6050   -0.8030 c         1 7HI      0.724700
     74 H15        -8.1880    2.7640    1.6150 ha        1 7HI      0.135000
     75 H21       -12.2080    2.0030    0.2260 ha        1 7HI      0.126000
@<TRIPOS>BOND
     1    1    3 1   
     2    1    4 1   
     3    1   23 1   
     4    2   24 1   
     5    2   25 1   
     6    2   37 1   
     7    2   38 1   
     8    3   24 1   
     9    3   28 2   
    10    4    5 1   
    11    4   41 1   
    12    4   42 1   
    13    5   29 1   
    14    5   43 1   
    15    5   44 1   
    16    6   29 1   
    17    6   31 1   
    18    6   45 1   
    19    6   46 1   
    20    7   47 1   
    21    7   48 1   
    22    7   49 1   
    23    7   72 1   
    24    8   12 ar  
    25    8   21 ar  
    26    8   74 1   
    27    9   10 ar  
    28    9   17 ar  
    29    9   50 1   
    30   10   19 ar  
    31   10   51 1   
    32   11   13 ar  
    33   11   21 ar  
    34   11   75 1   
    35   12   19 1   
    36   12   20 ar  
    37   13   20 ar  
    38   13   52 1   
    39   14   17 ar  
    40   14   18 ar  
    41   14   53 1   
    42   15   73 2   
    43   16   17 1   
    44   16   54 1   
    45   16   73 1   
    46   18   19 ar  
    47   18   55 1   
    48   20   56 1   
    49   21   57 1   
    50   22   23 2   
    51   22   28 1   
    52   22   73 1   
    53   23   72 1   
    54   24   58 1   
    55   24   59 1   
    56   25   26 1   
    57   25   60 1   
    58   25   61 1   
    59   26   27 1   
    60   26   62 1   
    61   26   63 1   
    62   27   28 1   
    63   27   64 1   
    64   27   65 1   
    65   29   30 1   
    66   29   66 1   
    67   30   67 1   
    68   31   32 1   
    69   31   33 1   
    70   31   68 1   
    71   32   69 1   
    72   33   34 1   
    73   33   70 1   
    74   33   71 1   
    75   34   35 1   
    76   34   36 1   
    77   39   72 1   
    78   40   72 1   
@<TRIPOS>SUBSTRUCTURE
     1 7HI         1 TEMP              0 ****  ****    0 ROOT
