@<TRIPOS>MOLECULE
7HI
   75    68     1     0     0
SMALL
bcc


@<TRIPOS>ATOM
      1 N1         -0.1230    0.8800    1.6550 n2        1 7HI     -0.103000
      2 C4          3.3990    1.8500    2.5590 c3        1 7HI     -0.149000
      3 C5          1.2680    0.8430    1.6980 c1        1 7HI     -0.064000
      4 C6         -2.0220   -0.2660    0.2250 c3        1 7HI     -0.104000
      5 C7         -0.9410    1.4030    2.7290 c2        1 7HI     -0.033000
      6 C8         -1.1400    2.9680    2.5430 c3        1 7HI     -0.180000
      7 C10        -1.8490    5.1110    3.6480 c3        1 7HI     -0.201000
      8 C13        -2.4970    0.5660   -0.9440 c3        1 7HI     -0.214000
      9 C15        -0.1960   -5.5090   -7.1150 c1        1 7HI     -0.106500
     10 C17        -0.5240   -4.5680   -2.6640 c1        1 7HI     -0.135167
     11 C20        -0.4260   -5.3990   -3.7810 c1        1 7HI     -0.135167
     12 C21         0.2660   -7.6210   -8.1900 c1        1 7HI     -0.135167
     13 C22         0.4670   -5.9470   -5.9650 c1        1 7HI     -0.052500
     14 C24         0.9310   -8.0580   -7.0340 c1        1 7HI     -0.135167
     15 C26         1.2280   -3.1520   -3.5480 c1        1 7HI     -0.167000
     16 O2          1.0350   -0.7610   -2.4270 o         1 7HI     -0.348000
     17 C3          0.6400   -1.2470   -1.3810 c1        1 7HI      0.398000
     18 N2          0.2450   -2.6090   -1.3350 n2        1 7HI     -0.333000
     19 C32         0.3070   -3.4400   -2.5490 c1        1 7HI      0.099000
     20 C23         1.3280   -3.9900   -4.6760 c1        1 7HI     -0.106500
     21 C29         0.5040   -5.1080   -4.7890 c1        1 7HI     -0.052500
     22 C18         1.0280   -7.2190   -5.9270 c1        1 7HI     -0.135167
     23 C16        -0.2940   -6.3580   -8.2330 c1        1 7HI     -0.135167
     24 C2          0.6130   -0.3850   -0.0820 c2        1 7HI     -0.214000
     25 C12        -0.5410    0.1230    0.5570 c2        1 7HI     -0.040000
     26 C27         2.3170    0.8540    2.8420 c2        1 7HI     -0.106000
     27 C25         4.6030    1.1590    1.9470 c3        1 7HI     -0.154000
     28 C19         4.1740    0.0750    0.9810 c3        1 7HI     -0.152000
     29 C14         3.0750    0.5620    0.1040 c3        1 7HI     -0.089000
     30 C1          1.7180    0.0570    0.6180 c2        1 7HI     -0.100000
     31 C9         -1.8410    3.5340    3.7510 c3        1 7HI      0.043000
     32 O4         -1.1850    3.1530    4.8820 oh        1 7HI     -0.370000
     33 C11        -2.7400    5.6870    4.7270 c3        1 7HI      0.061000
     34 O3         -2.0880    5.5680    5.9940 oh        1 7HI     -0.405000
     35 C35        -3.0140    7.1440    4.4420 c3        1 7HI     -0.265000
     36 C36        -3.9090    7.6920    5.5010 c2        1 7HI      0.330000
     37 O7         -3.4230    8.2830    6.4830 o         1 7HI     -0.578500
     38 O6         -5.1310    7.5620    5.4030 o         1 7HI     -0.578500
     39 H4          3.6760    2.2460    3.4060 hc        1 7HI      0.086000
     40 H4A         3.0550    2.4980    1.9040 hc        1 7HI      0.086000
     41 H6         -2.0710   -1.2240   -0.0080 hc        1 7HI      0.090500
     42 H6A        -2.6010   -0.0880    1.0220 hc        1 7HI      0.090500
     43 H7         -0.5010    1.2330    3.5820 ha        1 7HI      0.110000
     44 H7A        -1.8440    0.9470    2.7160 ha        1 7HI      0.110000
     45 H8         -0.2380    3.4140    2.4370 hc        1 7HI      0.097500
     46 H8A        -1.6920    3.1380    1.7330 hc        1 7HI      0.097500
     47 H10        -2.1970    5.3830    2.7440 hc        1 7HI      0.092000
     48 H10A       -0.9460    5.4450    3.7590 hc        1 7HI      0.092000
     49 H13        -1.7990    1.1850   -1.2010 hc        1 7HI      0.081667
     50 H13A       -3.2870    1.0610   -0.6880 hc        1 7HI      0.081667
     51 H13B       -2.7070   -0.0180   -1.6990 hc        1 7HI      0.081667
     52 H15        -0.6030   -4.5890   -7.1440 ha        1 7HI      0.134500
     53 H17        -1.1700   -4.7720   -1.9610 ha        1 7HI      0.128833
     54 H20        -1.0230   -6.2040   -3.8630 ha        1 7HI      0.128833
     55 H21         0.1980   -8.2250   -8.9820 ha        1 7HI      0.128833
     56 H24         1.2450   -8.9850   -6.9720 ha        1 7HI      0.128833
     57 H26         1.8610   -2.4430   -3.4240 ha        1 7HI      0.176000
     58 HN2         0.0530   -2.9920   -0.5430 hn        1 7HI      0.233000
     59 H23         1.9810   -3.7830   -5.3860 ha        1 7HI      0.134500
     60 H18         1.4890   -7.5240   -5.1290 ha        1 7HI      0.128833
     61 H16        -0.7530   -6.0400   -9.0680 ha        1 7HI      0.128833
     62 H27         1.8710    1.0870    3.6960 ha        1 7HI      0.107000
     63 H27A        2.7270   -0.0630    2.9220 ha        1 7HI      0.107000
     64 H25         5.1530    1.8250    1.4670 hc        1 7HI      0.072000
     65 H25A        5.1290    0.7630    2.6490 hc        1 7HI      0.072000
     66 H19         3.8290   -0.6880    1.5110 hc        1 7HI      0.076000
     67 H19A        4.9340   -0.1410    0.4170 hc        1 7HI      0.076000
     68 H14         3.0670    1.5330    0.1410 hc        1 7HI      0.090500
     69 H14A        3.2230    0.1780   -0.8290 hc        1 7HI      0.090500
     70 H9         -2.7890    3.1920    3.7820 h1        1 7HI      0.072000
     71 HO4        -1.7890    2.8770    5.5030 ho        1 7HI      0.245000
     72 H11        -3.6050    5.1850    4.7480 h1        1 7HI      0.068000
     73 HO3        -1.5130    6.2760    6.1100 ho        1 7HI      0.268000
     74 H35        -3.4540    7.2330    3.5600 hc        1 7HI      0.077000
     75 H35A       -2.1720    7.6420    4.4380 hc        1 7HI      0.077000
@<TRIPOS>BOND
     1    1    3 1   
     2    1   25 1   
     3    2   26 1   
     4    2   27 1   
     5    2   39 1   
     6    2   40 1   
     7    3   30 1   
     8    4    8 1   
     9    4   25 1   
    10    4   41 1   
    11    4   42 1   
    12    5    6 1   
    13    5   43 1   
    14    5   44 1   
    15    6   31 1   
    16    6   45 1   
    17    6   46 1   
    18    7   31 1   
    19    7   33 1   
    20    7   47 1   
    21    7   48 1   
    22    8   49 1   
    23    8   50 1   
    24    8   51 1   
    25    9   13 1   
    26    9   52 1   
    27   10   11 1   
    28   10   53 1   
    29   11   54 1   
    30   12   23 1   
    31   12   55 1   
    32   14   22 1   
    33   14   56 1   
    34   15   19 1   
    35   15   57 1   
    36   16   17 1   
    37   17   24 1   
    38   18   19 1   
    39   18   58 1   
    40   20   21 1   
    41   20   59 1   
    42   22   60 1   
    43   23   61 1   
    44   24   25 1   
    45   24   30 1   
    46   26   62 1   
    47   26   63 1   
    48   27   28 1   
    49   27   64 1   
    50   27   65 1   
    51   28   29 1   
    52   28   66 1   
    53   28   67 1   
    54   29   30 1   
    55   29   68 1   
    56   29   69 1   
    57   31   32 1   
    58   31   70 1   
    59   32   71 1   
    60   33   34 1   
    61   33   35 1   
    62   33   72 1   
    63   34   73 1   
    64   35   36 1   
    65   35   74 1   
    66   35   75 1   
    67   36   37 1   
    68   36   38 1   
@<TRIPOS>SUBSTRUCTURE
     1 7HI         1 TEMP              0 ****  ****    0 ROOT
