@<TRIPOS>MOLECULE
7HK
   46    49     1     0     0
SMALL
bcc


@<TRIPOS>ATOM
      1 O2         -0.1330   -3.3830    0.3350 o         1 7HK     -0.638500
      2 C18        -0.3470   -2.1540    0.2560 c         1 7HK      0.734100
      3 N4         -1.6770   -1.7610    0.2560 n         1 7HK     -0.467100
      4 C19        -2.2160   -0.4750    0.1500 ca        1 7HK      0.077600
      5 C6         -1.5810    0.6840    0.6850 ca        1 7HK      0.085600
      6 C5         -2.2330    1.9290    0.5750 ca        1 7HK     -0.148000
      7 C4         -3.4800    2.0420   -0.0250 ca        1 7HK     -0.122000
      8 C20        -3.4770   -0.3300   -0.4710 ca        1 7HK     -0.147000
      9 C3         -4.1050    0.9110   -0.5560 ca        1 7HK     -0.076300
     10 C2         -5.4190    1.0420   -1.2440 c3        1 7HK     -0.080100
     11 C1         -6.4320    0.0620   -0.7270 c         1 7HK      0.634100
     12 O3         -7.5190    0.6720   -0.1670 os        1 7HK     -0.437900
     13 C21        -8.5450   -0.1810    0.3440 c3        1 7HK      0.124700
     14 O1         -6.4130   -1.1690   -0.7730 o         1 7HK     -0.542000
     15 C17         0.7730   -1.1950    0.1240 ca        1 7HK     -0.182600
     16 C7          0.7690    0.1030    0.6740 ca        1 7HK      0.193600
     17 N1         -0.3520    0.5880    1.3900 na        1 7HK     -0.590000
     18 C16         1.9250   -1.6630   -0.5210 ca        1 7HK     -0.028000
     19 C15         3.0670   -0.8870   -0.6280 ca        1 7HK     -0.201000
     20 C9          3.0960    0.4060   -0.0550 ca        1 7HK      0.213600
     21 C8          1.9360    0.8900    0.5860 ca        1 7HK     -0.252000
     22 N2          4.2100    1.2420   -0.1770 nh        1 7HK     -0.651000
     23 C10         5.5390    0.8210   -0.1220 ca        1 7HK      0.200600
     24 C14         6.5620    1.7230   -0.5130 ca        1 7HK     -0.301300
     25 C13         7.8940    1.2910   -0.4690 ca        1 7HK      0.422200
     26 N3          8.2780    0.0610   -0.0740 nb        1 7HK     -0.685000
     27 C12         7.3020   -0.7850    0.3060 ca        1 7HK      0.422200
     28 C11         5.9360   -0.4650    0.3100 ca        1 7HK     -0.301300
     29 H14        -2.3440   -2.5070    0.2800 hn        1 7HK      0.334500
     30 H4         -1.7580    2.8350    0.9860 ha        1 7HK      0.134000
     31 H3         -3.9700    3.0250   -0.0810 ha        1 7HK      0.139000
     32 H15        -3.9980   -1.2140   -0.8800 ha        1 7HK      0.165000
     33 H1         -5.8220    2.0850   -1.1290 hc        1 7HK      0.087700
     34 H2         -5.2890    0.8360   -2.3430 hc        1 7HK      0.087700
     35 H212       -8.9630   -0.8080   -0.4800 h1        1 7HK      0.052700
     36 H211       -8.1300   -0.8340    1.1490 h1        1 7HK      0.052700
     37 H213       -9.3070    0.5320    0.7440 h1        1 7HK      0.052700
     38 H5         -0.1440    1.4370    1.8840 hn        1 7HK      0.399800
     39 H13         1.9150   -2.6850   -0.9420 ha        1 7HK      0.163000
     40 H12         3.9430   -1.2770   -1.1690 ha        1 7HK      0.154000
     41 H6          1.9420    1.8990    1.0300 ha        1 7HK      0.134000
     42 H7          4.0540    2.2130   -0.0170 hn        1 7HK      0.437800
     43 H11         6.3290    2.7410   -0.8490 ha        1 7HK      0.150500
     44 H10         8.7100    1.9720   -0.7720 h4        1 7HK      0.024100
     45 H9          7.6370   -1.7860    0.6350 h4        1 7HK      0.024100
     46 H8          5.2030   -1.2050    0.6600 ha        1 7HK      0.150500
@<TRIPOS>BOND
     1    1    2 2   
     2    2    3 1   
     3    2   15 1   
     4    3    4 1   
     5    3   29 1   
     6    4    5 ar  
     7    4    8 ar  
     8    5    6 ar  
     9    5   17 1   
    10    6    7 ar  
    11    6   30 1   
    12    7    9 ar  
    13    7   31 1   
    14    8    9 ar  
    15    8   32 1   
    16    9   10 1   
    17   10   11 1   
    18   10   33 1   
    19   10   34 1   
    20   11   12 1   
    21   11   14 2   
    22   12   13 1   
    23   13   35 1   
    24   13   36 1   
    25   13   37 1   
    26   15   16 ar  
    27   15   18 ar  
    28   16   17 1   
    29   16   21 ar  
    30   17   38 1   
    31   18   19 ar  
    32   18   39 1   
    33   19   20 ar  
    34   19   40 1   
    35   20   21 ar  
    36   20   22 1   
    37   21   41 1   
    38   22   23 1   
    39   22   42 1   
    40   23   24 ar  
    41   23   28 ar  
    42   24   25 ar  
    43   24   43 1   
    44   25   26 ar  
    45   25   44 1   
    46   26   27 ar  
    47   27   28 ar  
    48   27   45 1   
    49   28   46 1   
@<TRIPOS>SUBSTRUCTURE
     1 7HK         1 TEMP              0 ****  ****    0 ROOT
