@<TRIPOS>MOLECULE
7HK
   46    49     1     0     0
SMALL
bcc


@<TRIPOS>ATOM
      1 O2          0.0340   -0.3410    0.3070 o         1 7HK     -0.628500
      2 C18         1.2750   -0.2900    0.1790 c         1 7HK      0.712100
      3 N4          2.0230   -0.3470    1.3510 ns        1 7HK     -0.472100
      4 C19         3.4000   -0.1160    1.4900 ca        1 7HK      0.042600
      5 C6          4.3440   -0.6740    0.5790 ca        1 7HK      0.052600
      6 C5          5.7150   -0.4470    0.7910 ca        1 7HK     -0.079000
      7 C4          6.1550    0.2890    1.8850 ca        1 7HK     -0.141000
      8 C20         3.8690    0.6290    2.5920 ca        1 7HK     -0.154000
      9 C3          5.2350    0.8270    2.7890 ca        1 7HK     -0.062300
     10 C2          5.7150    1.6470    3.9350 c3        1 7HK     -0.083100
     11 C1          5.1280    1.2010    5.2420 c         1 7HK      0.635100
     12 O3          6.0800    0.7950    6.1360 os        1 7HK     -0.436900
     13 C21         5.6170    0.3640    7.4180 c3        1 7HK      0.124700
     14 O1          3.9480    1.1870    5.5980 o         1 7HK     -0.543000
     15 C17         1.9040   -0.1760   -1.1580 ca        1 7HK     -0.195600
     16 C7          3.1520   -0.7460   -1.4870 ca        1 7HK      0.150600
     17 N1          3.9480   -1.4720   -0.5410 na        1 7HK     -0.589000
     18 C16         1.1770    0.5060   -2.1420 ca        1 7HK     -0.042000
     19 C15         1.6650    0.6420   -3.4330 ca        1 7HK     -0.181000
     20 C9          2.9080    0.0690   -3.7840 ca        1 7HK      0.186600
     21 C8          3.6440   -0.6250   -2.7950 ca        1 7HK     -0.174000
     22 N2          3.4650    0.2390   -5.0560 nu        1 7HK     -0.646000
     23 C10         2.7480    0.1880   -6.2540 ca        1 7HK      0.199600
     24 C14         3.3920    0.5810   -7.4560 ca        1 7HK     -0.302300
     25 C13         2.6630    0.5500   -8.6510 ca        1 7HK      0.422700
     26 N3          1.3750    0.1640   -8.7420 nb        1 7HK     -0.686000
     27 C12         0.7750   -0.2190   -7.6000 ca        1 7HK      0.422700
     28 C11         1.4030   -0.2350   -6.3450 ca        1 7HK     -0.302300
     29 H14         1.4910   -0.2980    2.1980 hn        1 7HK      0.331500
     30 H4          6.4510   -0.8690    0.0870 ha        1 7HK      0.151000
     31 H3          7.2340    0.4430    2.0370 ha        1 7HK      0.140000
     32 H15         3.1580    1.0500    3.3260 ha        1 7HK      0.164000
     33 H1          5.4080    2.7200    3.7820 hc        1 7HK      0.088700
     34 H2          6.8370    1.6130    4.0030 hc        1 7HK      0.088700
     35 H212        5.0830    1.2010    7.9290 h1        1 7HK      0.053033
     36 H211        4.9350   -0.5120    7.3010 h1        1 7HK      0.053033
     37 H213        6.5560    0.0860    7.9570 h1        1 7HK      0.053033
     38 H5          3.4420   -2.2840   -0.2220 hn        1 7HK      0.391800
     39 H13         0.1960    0.9370   -1.8760 ha        1 7HK      0.161000
     40 H12         1.0840    1.2110   -4.1760 ha        1 7HK      0.154000
     41 H6          4.6170   -1.0770   -3.0460 ha        1 7HK      0.152000
     42 H7          4.4450    0.0710   -5.1310 hn        1 7HK      0.438800
     43 H11         4.4400    0.9100   -7.4620 ha        1 7HK      0.149500
     44 H10         3.1400    0.8550   -9.6010 h4        1 7HK      0.023600
     45 H9         -0.2780   -0.5400   -7.6960 h4        1 7HK      0.023600
     46 H8          0.8500   -0.5870   -5.4640 ha        1 7HK      0.149500
@<TRIPOS>BOND
     1    1    2 2   
     2    2    3 1   
     3    2   15 1   
     4    3    4 1   
     5    3   29 1   
     6    4    5 ar  
     7    4    8 ar  
     8    5    6 ar  
     9    5   17 1   
    10    6    7 ar  
    11    6   30 1   
    12    7    9 ar  
    13    7   31 1   
    14    8    9 ar  
    15    8   32 1   
    16    9   10 1   
    17   10   11 1   
    18   10   33 1   
    19   10   34 1   
    20   11   12 1   
    21   11   14 2   
    22   12   13 1   
    23   13   35 1   
    24   13   36 1   
    25   13   37 1   
    26   15   16 ar  
    27   15   18 ar  
    28   16   17 1   
    29   16   21 ar  
    30   17   38 1   
    31   18   19 ar  
    32   18   39 1   
    33   19   20 ar  
    34   19   40 1   
    35   20   21 ar  
    36   20   22 1   
    37   21   41 1   
    38   22   23 1   
    39   22   42 1   
    40   23   24 ar  
    41   23   28 ar  
    42   24   25 ar  
    43   24   43 1   
    44   25   26 ar  
    45   25   44 1   
    46   26   27 ar  
    47   27   28 ar  
    48   27   45 1   
    49   28   46 1   
@<TRIPOS>SUBSTRUCTURE
     1 7HK         1 TEMP              0 ****  ****    0 ROOT
