@<TRIPOS>MOLECULE
7HK
   46    49     1     0     0
SMALL
bcc


@<TRIPOS>ATOM
      1 O2          0.0270   -0.2880    0.3090 o         1 7HK     -0.628500
      2 C18         1.2690   -0.2560    0.1800 c         1 7HK      0.712100
      3 N4          2.0170   -0.3210    1.3530 n         1 7HK     -0.472100
      4 C19         3.3960   -0.1100    1.4900 ca        1 7HK      0.042600
      5 C6          4.3320   -0.6830    0.5810 ca        1 7HK      0.052600
      6 C5          5.7060   -0.4750    0.7920 ca        1 7HK     -0.079000
      7 C4          6.1570    0.2560    1.8840 ca        1 7HK     -0.141000
      8 C20         3.8760    0.6300    2.5910 ca        1 7HK     -0.154000
      9 C3          5.2450    0.8090    2.7880 ca        1 7HK     -0.062300
     10 C2          5.7370    1.6250    3.9320 c3        1 7HK     -0.083100
     11 C1          5.1440    1.1900    5.2400 c         1 7HK      0.635100
     12 O3          6.0890    0.7720    6.1350 os        1 7HK     -0.436900
     13 C21         5.6200    0.3510    7.4180 c3        1 7HK      0.124700
     14 O1          3.9640    1.1940    5.5960 o         1 7HK     -0.543000
     15 C17         1.8990   -0.1530   -1.1570 ca        1 7HK     -0.195600
     16 C7          3.1390   -0.7420   -1.4850 ca        1 7HK      0.150600
     17 N1          3.9240   -1.4770   -0.5380 na        1 7HK     -0.589000
     18 C16         1.1820    0.5370   -2.1420 ca        1 7HK     -0.042000
     19 C15         1.6710    0.6640   -3.4330 ca        1 7HK     -0.181000
     20 C9          2.9060    0.0720   -3.7840 ca        1 7HK      0.186600
     21 C8          3.6320   -0.6300   -2.7940 ca        1 7HK     -0.174000
     22 N2          3.4650    0.2310   -5.0570 nh        1 7HK     -0.646000
     23 C10         2.7470    0.1870   -6.2540 ca        1 7HK      0.199600
     24 C14         3.3960    0.5680   -7.4570 ca        1 7HK     -0.302300
     25 C13         2.6660    0.5440   -8.6520 ca        1 7HK      0.422700
     26 N3          1.3720    0.1770   -8.7420 nb        1 7HK     -0.686000
     27 C12         0.7670   -0.1950   -7.5980 ca        1 7HK      0.422700
     28 C11         1.3950   -0.2170   -6.3440 ca        1 7HK     -0.302300
     29 H14         1.4850   -0.2630    2.1990 hn        1 7HK      0.331500
     30 H4          6.4360   -0.9090    0.0880 ha        1 7HK      0.151000
     31 H3          7.2380    0.3960    2.0360 ha        1 7HK      0.140000
     32 H15         3.1720    1.0640    3.3240 ha        1 7HK      0.164000
     33 H1          6.8580    1.5730    4.0000 hc        1 7HK      0.088700
     34 H2          5.4460    2.7010    3.7770 hc        1 7HK      0.088700
     35 H212        4.9250   -0.5150    7.3030 h1        1 7HK      0.053033
     36 H211        6.5540    0.0600    7.9570 h1        1 7HK      0.053033
     37 H213        5.0980    1.1960    7.9270 h1        1 7HK      0.053033
     38 H5          3.4080   -2.2810   -0.2170 hn        1 7HK      0.391800
     39 H13         0.2070    0.9820   -1.8770 ha        1 7HK      0.161000
     40 H12         1.0980    1.2390   -4.1770 ha        1 7HK      0.154000
     41 H6          4.5990   -1.0970   -3.0440 ha        1 7HK      0.152000
     42 H7          4.4420    0.0490   -5.1320 hn        1 7HK      0.438800
     43 H11         4.4480    0.8820   -7.4640 ha        1 7HK      0.149500
     44 H10         3.1460    0.8410   -9.6030 h4        1 7HK      0.023600
     45 H9         -0.2910   -0.5010   -7.6930 h4        1 7HK      0.023600
     46 H8          0.8380   -0.5580   -5.4610 ha        1 7HK      0.149500
@<TRIPOS>BOND
     1    1    2 2   
     2    2    3 1   
     3    2   15 1   
     4    3    4 1   
     5    3   29 1   
     6    4    5 ar  
     7    4    8 ar  
     8    5    6 ar  
     9    5   17 1   
    10    6    7 ar  
    11    6   30 1   
    12    7    9 ar  
    13    7   31 1   
    14    8    9 ar  
    15    8   32 1   
    16    9   10 1   
    17   10   11 1   
    18   10   33 1   
    19   10   34 1   
    20   11   12 1   
    21   11   14 2   
    22   12   13 1   
    23   13   35 1   
    24   13   36 1   
    25   13   37 1   
    26   15   16 ar  
    27   15   18 ar  
    28   16   17 1   
    29   16   21 ar  
    30   17   38 1   
    31   18   19 ar  
    32   18   39 1   
    33   19   20 ar  
    34   19   40 1   
    35   20   21 ar  
    36   20   22 1   
    37   21   41 1   
    38   22   23 1   
    39   22   42 1   
    40   23   24 ar  
    41   23   28 ar  
    42   24   25 ar  
    43   24   43 1   
    44   25   26 ar  
    45   25   44 1   
    46   26   27 ar  
    47   27   28 ar  
    48   27   45 1   
    49   28   46 1   
@<TRIPOS>SUBSTRUCTURE
     1 7HK         1 TEMP              0 ****  ****    0 ROOT
