@<TRIPOS>MOLECULE
7HK
   47    50     1     0     0
SMALL
bcc


@<TRIPOS>ATOM
      1 O2          0.1310    1.0810    0.0790 o         1 7HK     -0.596500
      2 C18         1.3330    0.7540    0.0190 c         1 7HK      0.694100
      3 N4          1.9880    0.4260    1.1900 n         1 7HK     -0.458100
      4 C19         3.3640    0.1960    1.3610 ca        1 7HK      0.031600
      5 C6          4.1080   -0.6100    0.4540 ca        1 7HK      0.031600
      6 C5          5.4670   -0.8570    0.7110 ca        1 7HK     -0.077000
      7 C4          6.0800   -0.3400    1.8470 ca        1 7HK     -0.129000
      8 C20         4.0080    0.7190    2.5020 ca        1 7HK     -0.140000
      9 C3          5.3550    0.4480    2.7470 ca        1 7HK     -0.043300
     10 C2          6.0350    1.0220    3.9400 c3        1 7HK     -0.093100
     11 C1          5.2480    0.8340    5.2050 c         1 7HK      0.634100
     12 O3          5.9870    0.2670    6.2010 os        1 7HK     -0.429900
     13 C21         5.3380    0.0850    7.4630 c3        1 7HK      0.123700
     14 O1          4.0780    1.1450    5.4380 o         1 7HK     -0.544000
     15 C17         2.0170    0.7090   -1.3090 ca        1 7HK     -0.108600
     16 C7          3.0060   -0.2430   -1.6320 ca        1 7HK      0.154600
     17 N1          3.5150   -1.2040   -0.7070 na        1 7HK     -0.593000
     18 C16         1.5770    1.6290   -2.2690 ca        1 7HK     -0.049000
     19 C15         2.1030    1.6260   -3.5560 ca        1 7HK     -0.114000
     20 C9          3.0860    0.6750   -3.8810 ca        1 7HK     -0.034400
     21 C8          3.5390   -0.2570   -2.9390 ca        1 7HK     -0.102000
     22 N2          3.6590    0.6610   -5.2360 n4        1 7HK     -0.506800
     23 C10         2.8010   -0.0130   -6.2220 ca        1 7HK     -0.002400
     24 C14         2.2640    0.7150   -7.2970 ca        1 7HK     -0.226300
     25 C13         1.4660    0.0120   -8.2220 ca        1 7HK      0.436700
     26 N3          1.1940   -1.3020   -8.1270 nb        1 7HK     -0.604000
     27 C12         1.7160   -1.9780   -7.0880 ca        1 7HK      0.436700
     28 C11         2.5280   -1.3850   -6.0990 ca        1 7HK     -0.226300
     29 H14         1.4650    0.5820    2.0330 hn        1 7HK      0.351500
     30 H4          6.0510   -1.4850    0.0180 ha        1 7HK      0.153000
     31 H3          7.1420   -0.5620    2.0390 ha        1 7HK      0.153000
     32 H15         3.4460    1.3300    3.2330 ha        1 7HK      0.179000
     33 H1          6.1690    2.1310    3.7960 hc        1 7HK      0.096700
     34 H2          7.0550    0.5670    4.0700 hc        1 7HK      0.096700
     35 H212        6.1340   -0.3740    8.1010 h1        1 7HK      0.058367
     36 H211        5.0060    1.0720    7.8650 h1        1 7HK      0.058367
     37 H213        4.4620   -0.5970    7.3430 h1        1 7HK      0.058367
     38 H5          2.7920   -1.8540   -0.4410 hn        1 7HK      0.410800
     39 H13         0.7840    2.3520   -1.9970 ha        1 7HK      0.194000
     40 H12         1.7360    2.3560   -4.2950 ha        1 7HK      0.162000
     41 H6          4.3110   -1.0050   -3.1920 ha        1 7HK      0.169000
     42 H7          3.8130    1.6340   -5.5350 hn        1 7HK      0.463300
     43 H11         2.4420    1.7910   -7.4380 ha        1 7HK      0.169500
     44 H10         1.0200    0.5400   -9.0900 h4        1 7HK      0.064100
     45 H9          1.4720   -3.0580   -7.0370 h4        1 7HK      0.064100
     46 H8          2.9150   -1.9910   -5.2660 ha        1 7HK      0.169500
     47 H22         4.5660    0.1740   -5.2100 hn        1 7HK      0.463300
@<TRIPOS>BOND
     1    1    2 2   
     2    2    3 1   
     3    2   15 1   
     4    3    4 1   
     5    3   29 1   
     6    4    5 ar  
     7    4    8 ar  
     8    5    6 ar  
     9    5   17 1   
    10    6    7 ar  
    11    6   30 1   
    12    7    9 ar  
    13    7   31 1   
    14    8    9 ar  
    15    8   32 1   
    16    9   10 1   
    17   10   11 1   
    18   10   33 1   
    19   10   34 1   
    20   11   12 1   
    21   11   14 2   
    22   12   13 1   
    23   13   35 1   
    24   13   36 1   
    25   13   37 1   
    26   15   16 ar  
    27   15   18 ar  
    28   16   17 1   
    29   16   21 ar  
    30   17   38 1   
    31   18   19 ar  
    32   18   39 1   
    33   19   20 ar  
    34   19   40 1   
    35   20   21 ar  
    36   20   22 1   
    37   21   41 1   
    38   22   23 1   
    39   22   42 1   
    40   22   47 1   
    41   23   24 ar  
    42   23   28 ar  
    43   24   25 ar  
    44   24   43 1   
    45   25   26 ar  
    46   25   44 1   
    47   26   27 ar  
    48   27   28 ar  
    49   27   45 1   
    50   28   46 1   
@<TRIPOS>SUBSTRUCTURE
     1 7HK         1 TEMP              0 ****  ****    0 ROOT
