@<TRIPOS>MOLECULE
7HK
   46    40     1     0     0
SMALL
bcc


@<TRIPOS>ATOM
      1 O2         -2.9300    1.0140    2.4910 o         1 7HK     -0.366000
      2 C18        -2.2860    0.4030    1.6820 c1        1 7HK      0.372000
      3 N4         -1.5090   -0.7390    1.9780 n2        1 7HK     -0.322000
      4 C19        -0.2060   -0.3670    2.4380 c2        1 7HK      0.079000
      5 C6          0.5710    0.0960    1.3950 c2        1 7HK      0.004000
      6 C5          1.9980    0.0970    1.5100 c1        1 7HK     -0.143000
      7 C4          2.6060   -0.3730    2.6840 c1        1 7HK     -0.119000
      8 C20         0.4140   -0.8440    3.6310 c1        1 7HK     -0.148000
      9 C3          1.8160   -0.8440    3.7450 c1        1 7HK     -0.070000
     10 C2          2.1740   -2.0040    4.6900 c2        1 7HK     -0.116000
     11 C1          3.5080   -2.6890    4.1960 c1        1 7HK      0.306000
     12 O3          4.6550   -2.6040    4.9710 o         1 7HK     -0.275000
     13 C21         5.2430   -3.8280    5.2420 c3        1 7HK     -0.065000
     14 O1          3.5650   -3.1750    3.0690 o         1 7HK     -0.353000
     15 C17        -2.2620    0.7100    0.1880 c2        1 7HK     -0.165000
     16 C7         -0.9430    0.8120   -0.2870 c2        1 7HK      0.112000
     17 N1         -0.0420    1.2290    0.7630 n3        1 7HK     -0.221000
     18 C16        -3.3410    0.8880   -0.6940 c1        1 7HK     -0.024000
     19 C15        -3.1030    1.1650   -2.0370 c1        1 7HK     -0.217000
     20 C9         -1.7840    1.2670   -2.5120 c1        1 7HK      0.134000
     21 C8         -0.7060    1.0890   -1.6320 c1        1 7HK     -0.238000
     22 N2         -2.2760    0.7750   -3.7700 n3        1 7HK     -0.284000
     23 C10        -2.0420    1.5280   -4.9780 c2        1 7HK      0.121000
     24 C14        -2.2430    2.8840   -4.9890 c2        1 7HK     -0.239000
     25 C13        -2.1180    3.5910   -6.1680 c1        1 7HK     -0.043000
     26 N3         -1.7950    2.9430   -7.3180 n1        1 7HK     -0.159000
     27 C12        -1.5950    1.6010   -7.3090 c1        1 7HK     -0.043000
     28 C11        -1.7210    0.8860   -6.1220 c1        1 7HK     -0.236000
     29 H14        -1.8350   -1.6510    1.9310 hn        1 7HK      0.243000
     30 H4          2.5590    0.4300    0.7550 ha        1 7HK      0.139000
     31 H3          3.5570   -0.3720    2.7610 ha        1 7HK      0.163000
     32 H15        -0.1430   -1.1770    4.3790 ha        1 7HK      0.141000
     33 H1          2.3050   -1.6440    5.6360 ha        1 7HK      0.126500
     34 H2          1.4440   -2.6660    4.6880 ha        1 7HK      0.126500
     35 H212        5.7620   -3.7640    6.0680 h1        1 7HK      0.091333
     36 H211        5.8340   -4.0750    4.5060 h1        1 7HK      0.091333
     37 H213        4.5510   -4.5070    5.3440 h1        1 7HK      0.091333
     38 H5          0.6340    1.7930    0.3970 hn        1 7HK      0.197000
     39 H13        -4.2800    0.8130   -0.3560 ha        1 7HK      0.161000
     40 H12        -3.8460    1.2900   -2.6430 ha        1 7HK      0.142000
     41 H6          0.1990    1.1590   -1.9580 ha        1 7HK      0.149000
     42 H7         -2.7080   -0.0640   -3.8120 hn        1 7HK      0.238000
     43 H11        -2.4760    3.3510   -4.1590 ha        1 7HK      0.155000
     44 H10        -2.2590    4.5400   -6.1750 ha        1 7HK      0.161000
     45 H9         -1.3710    1.1520   -8.1070 ha        1 7HK      0.161000
     46 H8         -1.5710   -0.1200   -6.1160 ha        1 7HK      0.145000
@<TRIPOS>BOND
     1    1    2 1   
     2    2   15 1   
     3    3    4 1   
     4    3   29 1   
     5    4    5 1   
     6    4    8 1   
     7    5    6 1   
     8    5   17 1   
     9    6   30 1   
    10    7    9 1   
    11    7   31 1   
    12    8   32 1   
    13   10   11 1   
    14   10   33 1   
    15   10   34 1   
    16   11   14 1   
    17   12   13 1   
    18   13   35 1   
    19   13   36 1   
    20   13   37 1   
    21   15   16 1   
    22   15   18 1   
    23   16   17 1   
    24   16   21 1   
    25   17   38 1   
    26   18   39 1   
    27   19   20 1   
    28   19   40 1   
    29   20   22 1   
    30   21   41 1   
    31   22   23 1   
    32   22   42 1   
    33   23   24 1   
    34   23   28 1   
    35   24   25 1   
    36   24   43 1   
    37   25   44 1   
    38   26   27 1   
    39   27   45 1   
    40   28   46 1   
@<TRIPOS>SUBSTRUCTURE
     1 7HK         1 TEMP              0 ****  ****    0 ROOT
