@<TRIPOS>MOLECULE
7HP
   14    15     1     0     0
SMALL
bcc


@<TRIPOS>ATOM
      1 C9         -0.0310    0.0600   -0.0040 cc        1 7HP      0.235200
      2 C4          1.4270    0.0050    0.0550 ca        1 7HP      0.320000
      3 N3          2.3380   -0.0030    1.0610 nb        1 7HP     -0.649000
      4 C2          3.6190   -0.0640    0.6480 ca        1 7HP      0.639900
      5 N1          4.1100   -0.1180   -0.6360 nb        1 7HP     -0.759000
      6 C6          3.2050   -0.1100   -1.6360 ca        1 7HP      0.676600
      7 O6          3.5730   -0.1610   -2.9550 oh        1 7HP     -0.615300
      8 C5          1.8130   -0.0480   -1.3500 ca        1 7HP     -0.308800
      9 N7          0.6330   -0.0230   -2.0880 na        1 7HP      0.022900
     10 N8         -0.4360    0.0410   -1.2930 nd        1 7HP     -0.489100
     11 H9         -0.7250    0.1100    0.8370 h4        1 7HP      0.072800
     12 H2          4.3960   -0.0720    1.4410 h5        1 7HP      0.060100
     13 HO6         4.5430   -0.2010   -3.0220 ho        1 7HP      0.452000
     14 HN7         0.5450   -0.0460   -3.0780 hn        1 7HP      0.341700
@<TRIPOS>BOND
     1    1    2 1   
     2    1   10 2   
     3    1   11 1   
     4    2    3 ar  
     5    2    8 ar  
     6    3    4 ar  
     7    4    5 ar  
     8    4   12 1   
     9    5    6 ar  
    10    6    7 1   
    11    6    8 ar  
    12    7   13 1   
    13    8    9 1   
    14    9   10 1   
    15    9   14 1   
@<TRIPOS>SUBSTRUCTURE
     1 7HP         1 TEMP              0 ****  ****    0 ROOT
