@<TRIPOS>MOLECULE
7HP
   14    15     1     0     0
SMALL
bcc


@<TRIPOS>ATOM
      1 C9         -0.7590    0.1180   -2.1680 cc        1 7HP      0.235200
      2 C4         -0.8920    0.0250   -0.7170 ca        1 7HP      0.320000
      3 N3         -1.9420    0.0140    0.1420 nb        1 7HP     -0.649000
      4 C2         -1.5960   -0.0890    1.4400 ca        1 7HP      0.639900
      5 N1         -0.3390   -0.1820    1.9930 nb        1 7HP     -0.759000
      6 C6          0.7050   -0.1700    1.1400 ca        1 7HP      0.676600
      7 O6          2.0030   -0.2560    1.5710 oh        1 7HP     -0.615300
      8 C5          0.4910   -0.0660   -0.2630 ca        1 7HP     -0.308800
      9 N7          1.2880   -0.0240   -1.4040 na        1 7HP      0.022900
     10 N8          0.5490    0.0830   -2.5090 nd        1 7HP     -0.489100
     11 H9         -1.5620    0.2030   -2.9010 h4        1 7HP      0.072800
     12 H2         -2.4270   -0.1030    2.1760 h5        1 7HP      0.060100
     13 HO6         2.0200   -0.3230    2.5410 ho        1 7HP      0.452000
     14 HN7         2.2800   -0.0650   -1.4430 hn        1 7HP      0.341700
@<TRIPOS>BOND
     1    1    2 1   
     2    1   10 2   
     3    1   11 1   
     4    2    3 ar  
     5    2    8 ar  
     6    3    4 ar  
     7    4    5 ar  
     8    4   12 1   
     9    5    6 ar  
    10    6    7 1   
    11    6    8 ar  
    12    7   13 1   
    13    8    9 1   
    14    9   10 1   
    15    9   14 1   
@<TRIPOS>SUBSTRUCTURE
     1 7HP         1 TEMP              0 ****  ****    0 ROOT
