@<TRIPOS>MOLECULE
7HP
   14     9     1     0     0
SMALL
bcc


@<TRIPOS>ATOM
      1 C9         -2.0830    0.0120    0.8280 c1        1 7HP     -0.152000
      2 C4         -0.6950    0.0120    0.8280 c1        1 7HP     -0.038000
      3 N3          0.2190    0.0120    1.8390 n1        1 7HP     -0.123000
      4 C2          1.5520    0.0120    1.5540 c1        1 7HP     -0.023000
      5 N1          1.9730    0.0120    0.2570 n1        1 7HP     -0.233000
      6 C6          1.0760    0.0120   -0.7400 c1        1 7HP      0.178000
      7 O6          1.8750    0.3070   -1.8600 o         1 7HP     -0.244000
      8 C5         -0.2800    0.0120   -0.4530 c1        1 7HP     -0.133000
      9 N7         -1.3920    0.0120   -1.2580 n1        1 7HP     -0.152000
     10 N8         -2.4990    0.0120   -0.4520 n2        1 7HP     -0.022000
     11 H9         -2.6570    0.0120    1.6180 DU        1 7HP      0.247000
     12 H2          2.2050    0.0120    2.2790 ha        1 7HP      0.197000
     13 HO6         2.0980   -0.4470   -2.2720 ho        1 7HP      0.251000
     14 HN7        -1.3930    0.0120   -2.1700 DU        1 7HP      0.247000
@<TRIPOS>BOND
     1    1    2 1   
     2    1   10 1   
     3    2    8 1   
     4    3    4 1   
     5    4   12 1   
     6    5    6 1   
     7    6    8 1   
     8    7   13 1   
     9    9   10 1   
@<TRIPOS>SUBSTRUCTURE
     1 7HP         1 TEMP              0 ****  ****    0 ROOT
