@<TRIPOS>MOLECULE
7HV
   26    26     1     0     0
SMALL
bcc


@<TRIPOS>ATOM
      1 CAH        -1.9730    0.8210   -0.2850 ca        1 7HV     -0.121000
      2 CAO        -3.3520    0.6720   -0.1030 ca        1 7HV      0.015400
      3 CLE        -4.3050    2.0580    0.1400 cl        1 7HV     -0.092400
      4 CAN        -3.9260   -0.6060   -0.1190 ca        1 7HV      0.007400
      5 CLD        -5.5980   -0.8240    0.1010 cl        1 7HV     -0.097400
      6 CAG        -3.1140   -1.7280   -0.3200 ca        1 7HV     -0.127000
      7 CAF        -1.7440   -1.5740   -0.5060 ca        1 7HV     -0.103000
      8 CAM        -1.1640   -0.3000   -0.4900 ca        1 7HV     -0.057300
      9 CAK         0.3080   -0.1170   -0.7320 c3        1 7HV      0.194100
     10 NAL         1.1330   -1.0810   -0.0250 n3        1 7HV     -0.818200
     11 CAI         2.5540   -0.9250   -0.2860 c3        1 7HV      0.185800
     12 CAJ         3.2370    0.2870    0.3040 c3        1 7HV     -0.325600
     13 SAP         4.9740    0.3420   -0.1180 s6        1 7HV      1.431800
     14 OAC         5.4250    1.5390    0.4830 o         1 7HV     -0.749867
     15 OAB         5.5220   -0.8310    0.4490 o         1 7HV     -0.749867
     16 OAA         4.9980    0.3630   -1.5330 o         1 7HV     -0.749867
     17 H1         -1.5240    1.8270   -0.2650 ha        1 7HV      0.154000
     18 H2         -3.5620   -2.7330   -0.3320 ha        1 7HV      0.143000
     19 H3         -1.1070   -2.4600   -0.6650 ha        1 7HV      0.163000
     20 H4          0.4940   -0.2570   -1.8380 h1        1 7HV      0.046700
     21 H5          0.5870    0.9510   -0.4850 h1        1 7HV      0.046700
     22 H6          0.9600   -1.0060    0.9610 hn        1 7HV      0.346800
     23 H8          3.0510   -1.8510    0.1290 h1        1 7HV      0.064700
     24 H9          2.7130   -0.9190   -1.4030 h1        1 7HV      0.064700
     25 H10         2.7630    1.2270   -0.0660 h1        1 7HV      0.063200
     26 H11         3.1470    0.2860    1.4150 h1        1 7HV      0.063200
@<TRIPOS>BOND
     1    1    2 ar  
     2    1    8 ar  
     3    1   17 1   
     4    2    3 1   
     5    2    4 ar  
     6    4    5 1   
     7    4    6 ar  
     8    6    7 ar  
     9    6   18 1   
    10    7    8 ar  
    11    7   19 1   
    12    8    9 1   
    13    9   10 1   
    14    9   20 1   
    15    9   21 1   
    16   10   11 1   
    17   10   22 1   
    18   11   12 1   
    19   11   23 1   
    20   11   24 1   
    21   12   13 1   
    22   12   25 1   
    23   12   26 1   
    24   13   14 1   
    25   13   15 1   
    26   13   16 1   
@<TRIPOS>SUBSTRUCTURE
     1 7HV         1 TEMP              0 ****  ****    0 ROOT
