@<TRIPOS>MOLECULE
7HV
   26    21     1     0     0
SMALL
bcc


@<TRIPOS>ATOM
      1 CAH         2.1380    1.0560   -1.3900 c1        1 7HV     -0.121000
      2 CAO         3.5210    1.0590   -1.3770 c1        1 7HV     -0.063000
      3 CLE         4.4080    1.3430   -2.8510 cl        1 7HV     -0.016500
      4 CAN         4.2010    0.8690   -0.1930 c1        1 7HV     -0.071000
      5 CLD         5.9570    0.9650   -0.1640 cl        1 7HV     -0.016500
      6 CAG         3.5000    0.6750    0.9840 c2        1 7HV     -0.127000
      7 CAF         2.1150    0.6710    0.9720 c1        1 7HV     -0.103000
      8 CAM         1.4350    0.8620   -0.2150 c1        1 7HV     -0.050000
      9 CAK        -0.0920    0.9500   -0.2160 c3        1 7HV     -0.050000
     10 NAL        -0.6480   -0.3760   -0.2250 n3        1 7HV     -0.297000
     11 CAI        -2.0400   -0.3070    0.0440 c3        1 7HV     -0.051000
     12 CAJ        -2.5870   -1.7240    0.2910 c3        1 7HV     -0.865000
     13 SAP        -4.2470   -1.6210    0.8640 s4        1 7HV      2.077800
     14 OAC        -4.2870   -0.9920    2.2350 os        1 7HV     -1.072000
     15 OAB        -5.1200   -0.8650   -0.1140 o         1 7HV     -0.681400
     16 OAA        -4.9140   -2.9810    0.8640 o         1 7HV     -0.681400
     17 H1          1.6560    1.2290   -2.2260 ha        1 7HV      0.154000
     18 H2          3.9760    0.6180    1.8270 ha        1 7HV      0.143000
     19 H3          1.6190    0.5340    1.8020 ha        1 7HV      0.163000
     20 H4         -0.3960    1.4300    0.5970 h1        1 7HV      0.086000
     21 H5         -0.3900    1.4330   -1.0110 h1        1 7HV      0.086000
     22 H6         -0.5150   -0.7570   -1.0440 hn        1 7HV      0.142000
     23 H8         -2.1940    0.2500    0.8470 h1        1 7HV      0.104000
     24 H9         -2.5060    0.0960   -0.7310 h1        1 7HV      0.104000
     25 H10        -2.0310   -2.1790    0.9740 h1        1 7HV      0.102500
     26 H11        -2.5600   -2.2360   -0.5460 h1        1 7HV      0.102500
@<TRIPOS>BOND
     1    1    8 1   
     2    1   17 1   
     3    2    4 1   
     4    4    6 1   
     5    6    7 1   
     6    6   18 1   
     7    7   19 1   
     8    8    9 1   
     9    9   10 1   
    10    9   20 1   
    11    9   21 1   
    12   10   11 1   
    13   10   22 1   
    14   11   12 1   
    15   11   23 1   
    16   11   24 1   
    17   12   13 1   
    18   12   25 1   
    19   12   26 1   
    20   13   15 1   
    21   13   16 1   
@<TRIPOS>SUBSTRUCTURE
     1 7HV         1 TEMP              0 ****  ****    0 ROOT
