@<TRIPOS>MOLECULE
7HV
   27    27     1     0     0
SMALL
bcc


@<TRIPOS>ATOM
      1 CAH         0.0030   -0.0890    0.0160 ca        1 7HV     -0.100000
      2 CAO         1.3990   -0.0120   -0.0140 ca        1 7HV      0.015400
      3 CLE         2.1920   -0.0790   -1.5060 cl        1 7HV     -0.036400
      4 CAN         2.1170    0.1220    1.1870 ca        1 7HV      0.041400
      5 CLD         3.8040    0.2190    1.1890 cl        1 7HV     -0.032400
      6 CAG         1.4280    0.1780    2.4060 ca        1 7HV     -0.114000
      7 CAF         0.0390    0.0980    2.4300 ca        1 7HV     -0.095000
      8 CAM        -0.6760   -0.0370    1.2360 ca        1 7HV     -0.159300
      9 CAK        -2.1680   -0.0950    1.2560 c3        1 7HV      0.157100
     10 NAL        -2.6740   -1.4920    1.1710 n4        1 7HV     -0.770000
     11 CAI        -4.1830   -1.5550    1.1870 c3        1 7HV      0.163800
     12 CAJ        -4.6840   -2.9470    1.1150 c3        1 7HV     -0.304600
     13 SAP        -6.5730   -2.8430    1.1750 s6        1 7HV      1.444800
     14 OAC        -6.9490   -4.1780    1.1170 o         1 7HV     -0.722533
     15 OAB        -6.7430   -2.1790    2.3960 o         1 7HV     -0.722533
     16 OAA        -6.8130   -2.0560    0.0430 o         1 7HV     -0.722533
     17 H1         -0.5590   -0.1770   -0.9290 ha        1 7HV      0.157000
     18 H2          1.9890    0.2890    3.3490 ha        1 7HV      0.167000
     19 H3         -0.4920    0.1510    3.3940 ha        1 7HV      0.151000
     20 H4         -2.5720    0.3610    2.2070 hx        1 7HV      0.108200
     21 H5         -2.5970    0.4800    0.3830 hx        1 7HV      0.108200
     22 H6         -2.3350   -1.9320    0.3110 hn        1 7HV      0.436300
     23 H8         -4.5560   -0.9560    0.3040 hx        1 7HV      0.112200
     24 H9         -4.5310   -1.0610    2.1430 hx        1 7HV      0.112200
     25 H10        -4.4330   -3.4650    0.1660 h1        1 7HV      0.083700
     26 H11        -4.3850   -3.5770    1.9780 h1        1 7HV      0.083700
     27 HAL2       -2.3150   -2.0410    1.9580 hn        1 7HV      0.436300
@<TRIPOS>BOND
     1    1    2 ar  
     2    1    8 ar  
     3    1   17 1   
     4    2    3 1   
     5    2    4 ar  
     6    4    5 1   
     7    4    6 ar  
     8    6    7 ar  
     9    6   18 1   
    10    7    8 ar  
    11    7   19 1   
    12    8    9 1   
    13    9   10 1   
    14    9   20 1   
    15    9   21 1   
    16   10   11 1   
    17   10   22 1   
    18   10   27 1   
    19   11   12 1   
    20   11   23 1   
    21   11   24 1   
    22   12   13 1   
    23   12   25 1   
    24   12   26 1   
    25   13   14 1   
    26   13   15 1   
    27   13   16 1   
@<TRIPOS>SUBSTRUCTURE
     1 7HV         1 TEMP              0 ****  ****    0 ROOT
