@<TRIPOS>MOLECULE
7HV
   27    27     1     0     0
SMALL
bcc


@<TRIPOS>ATOM
      1 CAH         0.0060   -0.0820    0.0150 ca        1 7HV     -0.099000
      2 CAO         1.4030   -0.0050   -0.0100 ca        1 7HV      0.014400
      3 CLE         2.2000   -0.0630   -1.5000 cl        1 7HV     -0.036400
      4 CAN         2.1170    0.1200    1.1940 ca        1 7HV      0.041400
      5 CLD         3.8040    0.2170    1.2010 cl        1 7HV     -0.032400
      6 CAG         1.4250    0.1690    2.4110 ca        1 7HV     -0.114000
      7 CAF         0.0360    0.0890    2.4310 ca        1 7HV     -0.095000
      8 CAM        -0.6750   -0.0380    1.2340 ca        1 7HV     -0.159300
      9 CAK        -2.1680   -0.0940    1.2500 c3        1 7HV      0.157100
     10 NAL        -2.6740   -1.4920    1.1690 n4        1 7HV     -0.770000
     11 CAI        -4.1830   -1.5540    1.1840 c3        1 7HV      0.163800
     12 CAJ        -4.6850   -2.9470    1.1160 c3        1 7HV     -0.304600
     13 SAP        -6.5740   -2.8420    1.1740 s6        1 7HV      1.444800
     14 OAC        -6.9500   -4.1780    1.1210 o         1 7HV     -0.722533
     15 OAB        -6.7430   -2.1740    2.3920 o         1 7HV     -0.722533
     16 OAA        -6.8120   -2.0600    0.0390 o         1 7HV     -0.722533
     17 H1         -0.5520   -0.1640   -0.9310 ha        1 7HV      0.157000
     18 H2          1.9840    0.2730    3.3560 ha        1 7HV      0.167000
     19 H3         -0.4980    0.1370    3.3940 ha        1 7HV      0.151000
     20 H4         -2.5740    0.3650    2.1980 hx        1 7HV      0.108200
     21 H5         -2.5940    0.4770    0.3740 hx        1 7HV      0.108200
     22 H6         -2.3160   -2.0380    1.9580 hn        1 7HV      0.436300
     23 H8         -4.5320   -1.0580    2.1380 hx        1 7HV      0.112200
     24 H9         -4.5550   -0.9590    0.2980 hx        1 7HV      0.112200
     25 H10        -4.4330   -3.4680    0.1690 h1        1 7HV      0.083700
     26 H11        -4.3860   -3.5740    1.9810 h1        1 7HV      0.083700
     27 HAL2       -2.3340   -1.9350    0.3110 hn        1 7HV      0.436300
@<TRIPOS>BOND
     1    1    2 ar  
     2    1    8 ar  
     3    1   17 1   
     4    2    3 1   
     5    2    4 ar  
     6    4    5 1   
     7    4    6 ar  
     8    6    7 ar  
     9    6   18 1   
    10    7    8 ar  
    11    7   19 1   
    12    8    9 1   
    13    9   10 1   
    14    9   20 1   
    15    9   21 1   
    16   10   11 1   
    17   10   22 1   
    18   10   27 1   
    19   11   12 1   
    20   11   23 1   
    21   11   24 1   
    22   12   13 1   
    23   12   25 1   
    24   12   26 1   
    25   13   14 1   
    26   13   15 1   
    27   13   16 1   
@<TRIPOS>SUBSTRUCTURE
     1 7HV         1 TEMP              0 ****  ****    0 ROOT
