@<TRIPOS>MOLECULE
7I1
   58    62     1     0     0
SMALL
bcc


@<TRIPOS>ATOM
      1 O2          0.8240    2.5240   -0.2170 o         1 7I1     -0.465100
      2 C14         1.7900    1.7710   -0.3300 c         1 7I1      0.597300
      3 N1          2.6170    1.5970    0.9250 n4        1 7I1     -0.668800
      4 C15         2.2520    0.3290    1.6450 c3        1 7I1      0.180100
      5 C16         2.9940    0.2180    2.9320 ca        1 7I1     -0.186300
      6 C25         2.6110    1.0100    4.0560 ca        1 7I1     -0.014000
      7 C24         1.5240    1.9260    4.0280 ca        1 7I1     -0.178000
      8 C23         1.2040    2.6730    5.1360 ca        1 7I1     -0.077000
      9 C22         1.9520    2.5450    6.3310 ca        1 7I1     -0.122000
     10 C21         2.9980    1.6590    6.3940 ca        1 7I1     -0.092000
     11 C20         3.3480    0.8690    5.2630 ca        1 7I1     -0.047000
     12 C19         4.4200   -0.0610    5.3290 ca        1 7I1     -0.057000
     13 C18         4.7550   -0.8230    4.2360 ca        1 7I1     -0.146000
     14 C17         4.0410   -0.6780    3.0270 ca        1 7I1     -0.062000
     15 C2          2.2270    1.0620   -1.4880 cc        1 7I1     -0.197100
     16 O           3.3910    0.2450   -1.3720 os        1 7I1     -0.230200
     17 C3          3.5930   -0.2880   -2.6450 ca        1 7I1      0.157100
     18 C13         2.5810    0.1730   -3.5460 ca        1 7I1     -0.213800
     19 C1          1.7100    1.0360   -2.7860 cd        1 7I1      0.166600
     20 C           0.5250    1.7270   -3.2870 c3        1 7I1     -0.090900
     21 C7          2.6270   -0.2590   -4.8900 ca        1 7I1      0.250100
     22 C6          3.6620   -1.1310   -5.2690 ca        1 7I1     -0.243000
     23 C5          4.6250   -1.5540   -4.3510 ca        1 7I1     -0.008000
     24 C4          4.6190   -1.1450   -3.0130 ca        1 7I1     -0.188000
     25 O1          1.6490    0.2320   -5.7000 os        1 7I1     -0.322900
     26 C8          1.6430   -0.1710   -7.0920 c3        1 7I1      0.141100
     27 C12         0.7870    0.8830   -7.7900 c3        1 7I1     -0.094900
     28 C11         0.5490    0.4780   -9.2450 c3        1 7I1      0.166800
     29 N          -0.0030   -0.8550   -9.3740 n3        1 7I1     -0.825200
     30 C10         0.7780   -1.8760   -8.7060 c3        1 7I1      0.166800
     31 C9          1.0280   -1.5560   -7.2320 c3        1 7I1     -0.094900
     32 H1          3.6120    1.5660    0.6760 hn        1 7I1      0.462300
     33 H151        2.4990   -0.5270    0.9510 hx        1 7I1      0.110700
     34 H152        1.1370    0.3450    1.8200 hx        1 7I1      0.110700
     35 H17         4.3290   -1.3010    2.1650 ha        1 7I1      0.141000
     36 H24         0.9030    2.0180    3.1250 ha        1 7I1      0.118000
     37 H23         0.3550    3.3760    5.1110 ha        1 7I1      0.150000
     38 H22         1.6770    3.1570    7.2050 ha        1 7I1      0.156000
     39 H21         3.5820    1.5390    7.3210 ha        1 7I1      0.152000
     40 H19         4.9750   -0.1620    6.2770 ha        1 7I1      0.156000
     41 H18         5.5790   -1.5520    4.2880 ha        1 7I1      0.157000
     42 H4          5.3820   -1.4820   -2.3000 ha        1 7I1      0.167000
     43 HC1        -0.3450    1.0160   -3.3010 hc        1 7I1      0.091033
     44 HC2         0.6940    2.0720   -4.3410 hc        1 7I1      0.091033
     45 HC3         0.2560    2.6020   -2.6410 hc        1 7I1      0.091033
     46 H6          3.7230   -1.4970   -6.3060 ha        1 7I1      0.163000
     47 H5          5.4210   -2.2380   -4.6930 ha        1 7I1      0.160000
     48 H8          2.6920   -0.1460   -7.4950 h1        1 7I1      0.059700
     49 H121       -0.1900    0.9850   -7.2500 hc        1 7I1      0.064200
     50 H122        1.3050    1.8740   -7.7630 hc        1 7I1      0.064200
     51 H91C        1.7100   -2.3320   -6.8000 hc        1 7I1      0.064200
     52 H92C        0.0630   -1.5900   -6.6620 hc        1 7I1      0.064200
     53 H111       -0.1920    1.1950   -9.6990 h1        1 7I1      0.039950
     54 H112        1.5250    0.5930   -9.8040 h1        1 7I1      0.039950
     55 H          -0.1340   -1.0890  -10.3400 hn        1 7I1      0.381800
     56 H101        1.7800   -2.0420   -9.2030 h1        1 7I1      0.039950
     57 H102        0.2000   -2.8410   -8.7720 h1        1 7I1      0.039950
     58 H12         2.4540    2.3940    1.5550 hn        1 7I1      0.462300
@<TRIPOS>BOND
     1    1    2 2   
     2    2    3 1   
     3    2   15 1   
     4    3    4 1   
     5    3   32 1   
     6    3   58 1   
     7    4    5 1   
     8    4   33 1   
     9    4   34 1   
    10    5    6 ar  
    11    5   14 ar  
    12    6    7 ar  
    13    6   11 ar  
    14    7    8 ar  
    15    7   36 1   
    16    8    9 ar  
    17    8   37 1   
    18    9   10 ar  
    19    9   38 1   
    20   10   11 ar  
    21   10   39 1   
    22   11   12 ar  
    23   12   13 ar  
    24   12   40 1   
    25   13   14 ar  
    26   13   41 1   
    27   14   35 1   
    28   15   16 1   
    29   15   19 2   
    30   16   17 1   
    31   17   18 ar  
    32   17   24 ar  
    33   18   19 1   
    34   18   21 ar  
    35   19   20 1   
    36   20   43 1   
    37   20   44 1   
    38   20   45 1   
    39   21   22 ar  
    40   21   25 1   
    41   22   23 ar  
    42   22   46 1   
    43   23   24 ar  
    44   23   47 1   
    45   24   42 1   
    46   25   26 1   
    47   26   27 1   
    48   26   31 1   
    49   26   48 1   
    50   27   28 1   
    51   27   49 1   
    52   27   50 1   
    53   28   29 1   
    54   28   53 1   
    55   28   54 1   
    56   29   30 1   
    57   29   55 1   
    58   30   31 1   
    59   30   56 1   
    60   30   57 1   
    61   31   51 1   
    62   31   52 1   
@<TRIPOS>SUBSTRUCTURE
     1 7I1         1 TEMP              0 ****  ****    0 ROOT
