@<TRIPOS>MOLECULE
7I1
   57    52     1     0     0
SMALL
bcc


@<TRIPOS>ATOM
      1 O2         -2.0060   -1.5930    1.8400 o         1 7I1     -0.377000
      2 C14        -1.0340   -0.8770    1.7090 c1        1 7I1      0.379000
      3 N1         -0.4780   -0.2190    2.8410 n2        1 7I1     -0.356000
      4 C15        -1.0060   -0.4690    4.1410 c3        1 7I1      0.006000
      5 C16        -0.0510    0.0680    5.1860 c2        1 7I1     -0.100000
      6 C25        -0.0800    1.1950    6.0300 c2        1 7I1     -0.020000
      7 C24        -1.0670    2.1830    5.8540 c2        1 7I1     -0.124000
      8 C23        -1.0950    3.2940    6.6870 c1        1 7I1     -0.124000
      9 C22        -0.1450    3.4320    7.6950 c1        1 7I1     -0.137750
     10 C21         0.8300    2.4590    7.8690 c1        1 7I1     -0.137750
     11 C20         0.8580    1.3320    7.0260 c1        1 7I1     -0.041000
     12 C19         1.8460    0.3450    7.2020 c2        1 7I1     -0.108000
     13 C18         1.8730   -0.7670    6.3690 c1        1 7I1     -0.135000
     14 C17         0.9240   -0.9050    5.3610 c1        1 7I1     -0.117000
     15 C2         -0.4200   -0.6760    0.3400 c2        1 7I1     -0.102000
     16 O           0.9440   -0.6720    0.4950 os        1 7I1     -0.114000
     17 C3          1.5220   -0.7010   -0.7690 c1        1 7I1      0.073000
     18 C13         0.5100   -0.7240   -1.6980 c1        1 7I1     -0.151000
     19 C1         -0.6960   -0.7090   -1.0150 c1        1 7I1      0.009000
     20 C          -2.1620   -0.8160   -1.3820 c2        1 7I1     -0.174000
     21 C7          0.8150   -0.7480   -3.0680 c1        1 7I1      0.155000
     22 C6          2.1400   -0.7490   -3.4850 c1        1 7I1     -0.137750
     23 C5          3.1640   -0.7260   -2.5450 c1        1 7I1     -0.137750
     24 C4          2.8630   -0.7020   -1.1910 c1        1 7I1     -0.169000
     25 O1         -0.4010   -0.7770   -3.7800 os        1 7I1     -0.213000
     26 C8         -0.1800   -0.5310   -5.0110 c3        1 7I1      0.031000
     27 C12        -1.1080    0.6100   -5.5560 c3        1 7I1     -0.207500
     28 C11        -0.8870    0.8890   -7.0300 c3        1 7I1     -0.083000
     29 N          -0.2970   -0.1130   -7.6150 n3        1 7I1     -0.268000
     30 C10        -0.5160   -1.3850   -7.4140 c3        1 7I1     -0.083000
     31 C9         -0.7350   -1.6770   -5.9520 c3        1 7I1     -0.207500
     32 H1          0.2020    0.3790    2.7320 hn        1 7I1      0.236000
     33 H151       -1.1190   -1.4340    4.2680 h1        1 7I1      0.110000
     34 H152       -1.8740   -0.0250    4.2330 h1        1 7I1      0.110000
     35 H17         0.9440   -1.6860    4.7760 ha        1 7I1      0.131000
     36 H24        -1.7330    2.0860    5.1470 ha        1 7I1      0.159000
     37 H23        -1.7800    3.9780    6.5650 ha        1 7I1      0.135000
     38 H22        -0.1650    4.2130    8.2800 ha        1 7I1      0.135500
     39 H21         1.4950    2.5560    8.5770 ha        1 7I1      0.135500
     40 H19         2.5120    0.4410    7.9090 ha        1 7I1      0.133000
     41 H18         2.5580   -1.4510    6.4910 ha        1 7I1      0.133000
     42 H4          3.5830   -0.6860   -0.5310 ha        1 7I1      0.155000
     43 HC1        -2.2530   -0.8400   -2.3580 ha        1 7I1      0.104333
     44 HC2        -2.6450   -0.0400   -1.0280 ha        1 7I1      0.104333
     45 HC3        -2.5350   -1.6370   -0.9980 ha        1 7I1      0.104333
     46 H6          2.3530   -0.7660   -4.4370 ha        1 7I1      0.135500
     47 H5          4.0960   -0.7260   -2.8380 ha        1 7I1      0.135500
     48 H8          0.7620   -0.3450   -5.1860 h1        1 7I1      0.094000
     49 H121       -0.9310    1.4280   -5.0500 hc        1 7I1      0.098000
     50 H122       -2.0410    0.3490   -5.4200 hc        1 7I1      0.098000
     51 H91C       -0.2850   -2.5160   -5.7260 hc        1 7I1      0.098000
     52 H92C       -1.6950   -1.7800   -5.7910 hc        1 7I1      0.098000
     53 H111       -0.3290    1.6900   -7.1250 h1        1 7I1      0.093250
     54 H112       -1.7520    1.0470   -7.4600 h1        1 7I1      0.093250
     55 H          -0.2400    0.0490   -8.5140 hn        1 7I1      0.155000
     56 H101       -1.3100   -1.6570   -7.9190 h1        1 7I1      0.093250
     57 H102        0.2570   -1.8970   -7.7310 h1        1 7I1      0.093250
@<TRIPOS>BOND
     1    1    2 1   
     2    2   15 1   
     3    3    4 1   
     4    3   32 1   
     5    4    5 1   
     6    4   33 1   
     7    4   34 1   
     8    5    6 1   
     9    5   14 1   
    10    6    7 1   
    11    6   11 1   
    12    7    8 1   
    13    7   36 1   
    14    8   37 1   
    15    9   10 1   
    16    9   38 1   
    17   10   39 1   
    18   11   12 1   
    19   12   13 1   
    20   12   40 1   
    21   13   41 1   
    22   14   35 1   
    23   15   16 1   
    24   15   19 1   
    25   16   17 1   
    26   17   24 1   
    27   18   21 1   
    28   20   43 1   
    29   20   44 1   
    30   20   45 1   
    31   21   25 1   
    32   22   23 1   
    33   22   46 1   
    34   23   47 1   
    35   24   42 1   
    36   25   26 1   
    37   26   27 1   
    38   26   31 1   
    39   26   48 1   
    40   27   28 1   
    41   27   49 1   
    42   27   50 1   
    43   28   29 1   
    44   28   53 1   
    45   28   54 1   
    46   29   30 1   
    47   29   55 1   
    48   30   31 1   
    49   30   56 1   
    50   30   57 1   
    51   31   51 1   
    52   31   52 1   
@<TRIPOS>SUBSTRUCTURE
     1 7I1         1 TEMP              0 ****  ****    0 ROOT
