@<TRIPOS>MOLECULE
7I1
   57    61     1     0     0
SMALL
bcc


@<TRIPOS>ATOM
      1 O2          1.2000   -2.7630    0.2440 o         1 7I1     -0.608100
      2 C14         1.2830   -1.5820    0.6440 c         1 7I1      0.701300
      3 N1          2.4750   -1.0540    1.1100 n         1 7I1     -0.542900
      4 C15         3.7260   -1.7410    0.9250 c3        1 7I1      0.125300
      5 C16         4.6240   -1.1260   -0.1150 ca        1 7I1     -0.112300
      6 C25         5.3600    0.0640    0.1650 ca        1 7I1     -0.022000
      7 C24         5.2870    0.7400    1.4160 ca        1 7I1     -0.130000
      8 C23         6.0100    1.8850    1.6430 ca        1 7I1     -0.122000
      9 C22         6.8460    2.4180    0.6330 ca        1 7I1     -0.130000
     10 C21         6.9430    1.7880   -0.5820 ca        1 7I1     -0.114000
     11 C20         6.2050    0.6000   -0.8430 ca        1 7I1     -0.041000
     12 C19         6.3030   -0.0570   -2.1000 ca        1 7I1     -0.111000
     13 C18         5.5860   -1.2010   -2.3440 ca        1 7I1     -0.131000
     14 C17         4.7390   -1.7360   -1.3460 ca        1 7I1     -0.103000
     15 C2          0.0810   -0.7300    0.6950 cc        1 7I1     -0.079100
     16 O           0.2600    0.6360    1.0370 os        1 7I1     -0.203200
     17 C3         -1.0080    1.2050    0.9860 ca        1 7I1      0.117100
     18 C13        -1.9780    0.2250    0.6220 ca        1 7I1     -0.161800
     19 C1         -1.2460   -1.0190    0.4420 cd        1 7I1      0.017600
     20 C          -1.8330   -2.3080    0.0740 c3        1 7I1     -0.054900
     21 C7         -3.3220    0.6270    0.5120 ca        1 7I1      0.200100
     22 C6         -3.6460    1.9650    0.7680 ca        1 7I1     -0.242000
     23 C5         -2.6580    2.8910    1.1290 ca        1 7I1     -0.061000
     24 C4         -1.3170    2.5380    1.2470 ca        1 7I1     -0.169000
     25 O1         -4.2090   -0.3570    0.1460 os        1 7I1     -0.323900
     26 C8         -5.6100   -0.0240    0.1290 c3        1 7I1      0.143100
     27 C12        -6.3320   -1.3610    0.2870 c3        1 7I1     -0.132400
     28 C11        -7.8370   -1.1650    0.0930 c3        1 7I1      0.152800
     29 N          -8.2240   -0.4820   -1.1250 n3        1 7I1     -0.798200
     30 C10        -7.4930    0.7530   -1.3260 c3        1 7I1      0.152800
     31 C9         -5.9740    0.6440   -1.1920 c3        1 7I1     -0.132400
     32 H1          2.5230   -0.0690    1.2500 hn        1 7I1      0.319500
     33 H151        4.2640   -1.7450    1.9180 h1        1 7I1      0.072200
     34 H152        3.5120   -2.8150    0.6480 h1        1 7I1      0.072200
     35 H17         4.1670   -2.6510   -1.5690 ha        1 7I1      0.143000
     36 H24         4.6470    0.3330    2.2130 ha        1 7I1      0.133000
     37 H23         5.9480    2.4020    2.6120 ha        1 7I1      0.133000
     38 H22         7.4150    3.3370    0.8380 ha        1 7I1      0.133000
     39 H21         7.5910    2.1880   -1.3760 ha        1 7I1      0.133000
     40 H19         6.9640    0.3710   -2.8690 ha        1 7I1      0.133000
     41 H18         5.6560   -1.7140   -3.3150 ha        1 7I1      0.135000
     42 H4         -0.5420    3.2620    1.5270 ha        1 7I1      0.154000
     43 HC1        -2.2030   -2.8320    0.9940 hc        1 7I1      0.066367
     44 HC2        -2.7040   -2.1560   -0.6120 hc        1 7I1      0.066367
     45 HC3        -1.0720   -2.9640   -0.4210 hc        1 7I1      0.066367
     46 H6         -4.6840    2.3140    0.6840 ha        1 7I1      0.141000
     47 H5         -2.9570    3.9330    1.3240 ha        1 7I1      0.137000
     48 H8         -5.8610    0.6450    0.9970 h1        1 7I1      0.056700
     49 H121       -5.9290   -2.0900   -0.4610 hc        1 7I1      0.060700
     50 H122       -6.1340   -1.7760    1.3070 hc        1 7I1      0.060700
     51 H91C       -5.5190    1.6650   -1.2440 hc        1 7I1      0.060700
     52 H92C       -5.5480    0.0420   -2.0360 hc        1 7I1      0.060700
     53 H111       -8.3390   -2.1720    0.1110 h1        1 7I1      0.055950
     54 H112       -8.2370   -0.5630    0.9580 h1        1 7I1      0.055950
     55 H          -8.0900   -1.0890   -1.9140 hn        1 7I1      0.354800
     56 H101       -7.7420    1.1510   -2.3490 h1        1 7I1      0.055950
     57 H102       -7.8710    1.4950   -0.5670 h1        1 7I1      0.055950
@<TRIPOS>BOND
     1    1    2 2   
     2    2    3 1   
     3    2   15 1   
     4    3    4 1   
     5    3   32 1   
     6    4    5 1   
     7    4   33 1   
     8    4   34 1   
     9    5    6 ar  
    10    5   14 ar  
    11    6    7 ar  
    12    6   11 ar  
    13    7    8 ar  
    14    7   36 1   
    15    8    9 ar  
    16    8   37 1   
    17    9   10 ar  
    18    9   38 1   
    19   10   11 ar  
    20   10   39 1   
    21   11   12 ar  
    22   12   13 ar  
    23   12   40 1   
    24   13   14 ar  
    25   13   41 1   
    26   14   35 1   
    27   15   16 1   
    28   15   19 2   
    29   16   17 1   
    30   17   18 ar  
    31   17   24 ar  
    32   18   19 1   
    33   18   21 ar  
    34   19   20 1   
    35   20   43 1   
    36   20   44 1   
    37   20   45 1   
    38   21   22 ar  
    39   21   25 1   
    40   22   23 ar  
    41   22   46 1   
    42   23   24 ar  
    43   23   47 1   
    44   24   42 1   
    45   25   26 1   
    46   26   27 1   
    47   26   31 1   
    48   26   48 1   
    49   27   28 1   
    50   27   49 1   
    51   27   50 1   
    52   28   29 1   
    53   28   53 1   
    54   28   54 1   
    55   29   30 1   
    56   29   55 1   
    57   30   31 1   
    58   30   56 1   
    59   30   57 1   
    60   31   51 1   
    61   31   52 1   
@<TRIPOS>SUBSTRUCTURE
     1 7I1         1 TEMP              0 ****  ****    0 ROOT
