@<TRIPOS>MOLECULE
7I1
   58    62     1     0     0
SMALL
bcc


@<TRIPOS>ATOM
      1 O2          0.7810    2.5030   -0.2130 o         1 7I1     -0.465100
      2 C14         1.7750    1.7900   -0.3380 c         1 7I1      0.597300
      3 N1          2.6070    1.6230    0.9150 ny        1 7I1     -0.668800
      4 C15         2.2840    0.3320    1.6130 c3        1 7I1      0.180100
      5 C16         3.0290    0.2240    2.8990 ca        1 7I1     -0.185300
      6 C25         2.6170    0.9840    4.0360 ca        1 7I1     -0.014000
      7 C24         1.4990    1.8630    4.0210 ca        1 7I1     -0.178000
      8 C23         1.1510    2.5800    5.1410 ca        1 7I1     -0.077000
      9 C22         1.9020    2.4580    6.3350 ca        1 7I1     -0.122000
     10 C21         2.9780    1.6070    6.3850 ca        1 7I1     -0.092000
     11 C20         3.3570    0.8490    5.2420 ca        1 7I1     -0.047000
     12 C19         4.4600   -0.0450    5.2950 ca        1 7I1     -0.057000
     13 C18         4.8230   -0.7770    4.1890 ca        1 7I1     -0.146000
     14 C17         4.1050   -0.6370    2.9820 ca        1 7I1     -0.062000
     15 C2          2.2380    1.1170   -1.5070 cc        1 7I1     -0.196100
     16 O           3.4270    0.3360   -1.4030 os        1 7I1     -0.229200
     17 C3          3.6320   -0.1930   -2.6780 ca        1 7I1      0.157100
     18 C13         2.5970    0.2370   -3.5690 ca        1 7I1     -0.213800
     19 C1          1.7140    1.0800   -2.8030 cd        1 7I1      0.166600
     20 C           0.5210    1.7600   -3.3000 c3        1 7I1     -0.091900
     21 C7          2.6320   -0.2110   -4.9070 ca        1 7I1      0.250100
     22 C6          3.6860   -1.0550   -5.2960 ca        1 7I1     -0.243000
     23 C5          4.6760   -1.4410   -4.3890 ca        1 7I1     -0.009000
     24 C4          4.6770   -1.0220   -3.0550 ca        1 7I1     -0.188000
     25 O1          1.6220    0.2370   -5.7040 os        1 7I1     -0.322900
     26 C8          1.5960   -0.1940   -7.0880 c3        1 7I1      0.141100
     27 C12         0.6850    0.8160   -7.7820 c3        1 7I1     -0.094900
     28 C11         0.4270    0.3750   -9.2230 c3        1 7I1      0.166800
     29 N          -0.0800   -0.9790   -9.3140 n7        1 7I1     -0.825200
     30 C10         0.7530   -1.9580   -8.6480 c3        1 7I1      0.166800
     31 C9          1.0270   -1.6020   -7.1860 c3        1 7I1     -0.094900
     32 H1          2.4160    2.4030    1.5580 hn        1 7I1      0.462800
     33 H151        2.5610   -0.5050    0.9060 hx        1 7I1      0.110700
     34 H152        1.1690    0.3060    1.7860 hx        1 7I1      0.110700
     35 H17         4.4150   -1.2350    2.1100 ha        1 7I1      0.141000
     36 H24         0.8760    1.9480    3.1180 ha        1 7I1      0.118000
     37 H23         0.2790    3.2530    5.1250 ha        1 7I1      0.150000
     38 H22         1.6060    3.0460    7.2180 ha        1 7I1      0.156000
     39 H21         3.5650    1.4920    7.3110 ha        1 7I1      0.152000
     40 H19         5.0170   -0.1420    6.2420 ha        1 7I1      0.156000
     41 H18         5.6710   -1.4780    4.2310 ha        1 7I1      0.157000
     42 H4          5.4590   -1.3320   -2.3500 ha        1 7I1      0.167000
     43 HC1        -0.0110    1.1140   -4.0460 hc        1 7I1      0.091033
     44 HC2        -0.1780    2.0280   -2.4660 hc        1 7I1      0.091033
     45 HC3         0.8210    2.7060   -3.8270 hc        1 7I1      0.091033
     46 H6          3.7410   -1.4290   -6.3300 ha        1 7I1      0.163000
     47 H5          5.4870   -2.1030   -4.7390 ha        1 7I1      0.160000
     48 H8          2.6330   -0.1390   -7.5170 h1        1 7I1      0.059700
     49 H121        1.1680    1.8250   -7.7870 hc        1 7I1      0.064200
     50 H122       -0.2800    0.8940   -7.2190 hc        1 7I1      0.064200
     51 H91C        1.7470   -2.3450   -6.7580 hc        1 7I1      0.064200
     52 H92C        0.0780   -1.6590   -6.5920 hc        1 7I1      0.064200
     53 H111        1.3840    0.5140   -9.8100 h1        1 7I1      0.040200
     54 H112       -0.3500    1.0570   -9.6710 h1        1 7I1      0.040200
     55 H          -0.2270   -1.2360  -10.2720 hn        1 7I1      0.381800
     56 H101        0.2080   -2.9440   -8.6820 h1        1 7I1      0.040200
     57 H102        1.7480   -2.0980   -9.1670 h1        1 7I1      0.040200
     58 H12         3.6020    1.6300    0.6670 hn        1 7I1      0.462800
@<TRIPOS>BOND
     1    1    2 2   
     2    2    3 1   
     3    2   15 1   
     4    3    4 1   
     5    3   32 1   
     6    3   58 1   
     7    4    5 1   
     8    4   33 1   
     9    4   34 1   
    10    5    6 ar  
    11    5   14 ar  
    12    6    7 ar  
    13    6   11 ar  
    14    7    8 ar  
    15    7   36 1   
    16    8    9 ar  
    17    8   37 1   
    18    9   10 ar  
    19    9   38 1   
    20   10   11 ar  
    21   10   39 1   
    22   11   12 ar  
    23   12   13 ar  
    24   12   40 1   
    25   13   14 ar  
    26   13   41 1   
    27   14   35 1   
    28   15   16 1   
    29   15   19 2   
    30   16   17 1   
    31   17   18 ar  
    32   17   24 ar  
    33   18   19 1   
    34   18   21 ar  
    35   19   20 1   
    36   20   43 1   
    37   20   44 1   
    38   20   45 1   
    39   21   22 ar  
    40   21   25 1   
    41   22   23 ar  
    42   22   46 1   
    43   23   24 ar  
    44   23   47 1   
    45   24   42 1   
    46   25   26 1   
    47   26   27 1   
    48   26   31 1   
    49   26   48 1   
    50   27   28 1   
    51   27   49 1   
    52   27   50 1   
    53   28   29 1   
    54   28   53 1   
    55   28   54 1   
    56   29   30 1   
    57   29   55 1   
    58   30   31 1   
    59   30   56 1   
    60   30   57 1   
    61   31   51 1   
    62   31   52 1   
@<TRIPOS>SUBSTRUCTURE
     1 7I1         1 TEMP              0 ****  ****    0 ROOT
