@<TRIPOS>MOLECULE
7I2
   23    24     1     0     0
SMALL
bcc


@<TRIPOS>ATOM
      1 N1          0.0740   -0.0060    0.0290 nc        1 7I2     -0.278400
      2 N2          1.4360   -0.0040    0.0980 na        1 7I2      0.010700
      3 C3          1.9210   -0.0090    1.4230 cc        1 7I2     -0.069100
      4 C4          0.5730   -0.0200    3.6450 ca        1 7I2     -0.033000
      5 C5         -0.7100   -0.0240    4.1130 ca        1 7I2     -0.139000
      6 C6         -1.8390   -0.0220    3.2340 ca        1 7I2      0.018000
      7 C7         -1.6890   -0.0160    1.8650 ca        1 7I2     -0.180200
      8 C8         -0.3630   -0.0120    1.3130 ca        1 7I2      0.021000
      9 C9          0.7880   -0.0140    2.2430 ca        1 7I2     -0.116000
     10 N10        -2.8770   -0.0140    0.9720 no        1 7I2      0.325200
     11 O11        -3.9630   -0.0190    1.4830 o         1 7I2     -0.189000
     12 O12        -2.7250   -0.0080   -0.2200 o         1 7I2     -0.189000
     13 C13         2.2540    0.0020   -1.0760 c2        1 7I2      0.647700
     14 N14         3.5330    0.0030   -1.2000 n2        1 7I2     -0.738100
     15 N15         1.4710    0.0070   -2.3730 nz        1 7I2     -0.803600
     16 H31         2.9840   -0.0080    1.6720 h4        1 7I2      0.204000
     17 H41         1.4390   -0.0210    4.3260 ha        1 7I2      0.168000
     18 H51        -0.9120   -0.0280    5.1980 ha        1 7I2      0.176000
     19 H61        -2.8530   -0.0250    3.6840 ha        1 7I2      0.196000
     20 H14         4.1190   -0.0000   -0.3920 hn        1 7I2      0.488400
     21 H151        2.1190    0.0120   -3.1730 hn        1 7I2      0.493133
     22 H152        0.8740   -0.8310   -2.4130 hn        1 7I2      0.493133
     23 H153        0.8720    0.8450   -2.4050 hn        1 7I2      0.493133
@<TRIPOS>BOND
     1    1    2 1   
     2    1    8 2   
     3    2    3 1   
     4    2   13 1   
     5    3    9 2   
     6    3   16 1   
     7    4    5 ar  
     8    4    9 ar  
     9    4   17 1   
    10    5    6 ar  
    11    5   18 1   
    12    6    7 ar  
    13    6   19 1   
    14    7    8 ar  
    15    7   10 1   
    16    8    9 ar  
    17   10   11 1   
    18   10   12 1   
    19   13   14 2   
    20   13   15 1   
    21   14   20 1   
    22   15   21 1   
    23   15   22 1   
    24   15   23 1   
@<TRIPOS>SUBSTRUCTURE
     1 7I2         1 TEMP              0 ****  ****    0 ROOT
