@<TRIPOS>MOLECULE
7I2
   22    23     1     0     0
SMALL
bcc


@<TRIPOS>ATOM
      1 N1          0.0200    0.1670    0.0080 nc        1 7I2     -0.233400
      2 N2          1.3570    0.0780    0.0360 na        1 7I2      0.069700
      3 C3          1.8790   -0.1130    1.3120 cc        1 7I2     -0.120100
      4 C4          0.6040   -0.2820    3.5790 ca        1 7I2     -0.025000
      5 C5         -0.6640   -0.2430    4.1000 ca        1 7I2     -0.171000
      6 C6         -1.8080   -0.0670    3.2730 ca        1 7I2     -0.026000
      7 C7         -1.6940    0.0650    1.9030 ca        1 7I2     -0.148200
      8 C8         -0.3940    0.0390    1.3070 ca        1 7I2     -0.043000
      9 C9          0.7700   -0.1400    2.1880 ca        1 7I2     -0.148000
     10 N10        -2.9090    0.2300    1.0700 no        1 7I2      0.318200
     11 O11        -3.9420    0.5080    1.6270 o         1 7I2     -0.205000
     12 O12        -2.8570    0.0730   -0.1180 o         1 7I2     -0.205000
     13 C13         2.1970    0.1640   -1.1820 c2        1 7I2      0.718700
     14 N14         3.3240    0.8090   -1.2120 n2        1 7I2     -0.837100
     15 N15         1.7220   -0.5760   -2.2830 nh        1 7I2     -0.883800
     16 H31         2.9450   -0.2250    1.5120 h4        1 7I2      0.192000
     17 H41         1.4860   -0.4210    4.2230 ha        1 7I2      0.145000
     18 H51        -0.8270   -0.3480    5.1840 ha        1 7I2      0.149000
     19 H61        -2.8040   -0.0390    3.7530 ha        1 7I2      0.171000
     20 H14         3.6380    1.2360   -0.3690 hn        1 7I2      0.419400
     21 H151        2.1660   -0.3470   -3.1480 hn        1 7I2      0.432800
     22 H152        0.7330   -0.6900   -2.3490 hn        1 7I2      0.432800
@<TRIPOS>BOND
     1    1    2 1   
     2    1    8 2   
     3    2    3 1   
     4    2   13 1   
     5    3    9 2   
     6    3   16 1   
     7    4    5 ar  
     8    4    9 ar  
     9    4   17 1   
    10    5    6 ar  
    11    5   18 1   
    12    6    7 ar  
    13    6   19 1   
    14    7    8 ar  
    15    7   10 1   
    16    8    9 ar  
    17   10   11 1   
    18   10   12 1   
    19   13   14 2   
    20   13   15 1   
    21   14   20 1   
    22   15   21 1   
    23   15   22 1   
@<TRIPOS>SUBSTRUCTURE
     1 7I2         1 TEMP              0 ****  ****    0 ROOT
