@<TRIPOS>MOLECULE
7I2
   22    17     1     0     0
SMALL
bcc


@<TRIPOS>ATOM
      1 N1         -0.3260    0.0030   -1.1420 ne        1 7I2     -0.175100
      2 N2          1.0480   -0.0630   -1.1540 n1        1 7I2     -0.527100
      3 C3          1.4790   -0.0670    0.1300 cg        1 7I2      0.254800
      4 C4          0.2350    0.0300    2.3550 c1        1 7I2      0.035500
      5 C5         -1.0240    0.1070    2.9290 c1        1 7I2     -0.042500
      6 C6         -2.1490    0.1510    2.1250 c1        1 7I2     -0.042500
      7 C7         -2.0170    0.1180    0.7470 c1        1 7I2     -0.106000
      8 C8         -0.7380    0.0400    0.1630 c1        1 7I2      0.180400
      9 C9          0.3690   -0.0030    0.9540 cg        1 7I2     -0.161000
     10 N10        -3.1420    0.1260   -0.1170 no        1 7I2      0.272000
     11 O11        -3.0950   -0.4640   -1.1870 o         1 7I2     -0.205000
     12 O12        -4.2810    0.7830    0.2500 o         1 7I2     -0.205000
     13 C13         1.8710   -0.1090   -2.3090 c1        1 7I2      0.586600
     14 N14         1.3430    0.0540   -3.4940 n1        1 7I2     -0.588800
     15 N15         3.2660   -0.3300   -2.1790 n3        1 7I2     -0.788400
     16 H31         2.4100   -0.1090    0.4230 DU        1 7I2      0.201500
     17 H41         1.0290   -0.0010    2.9220 ha        1 7I2      0.086500
     18 H51        -1.1170    0.1300    3.9010 ha        1 7I2      0.101500
     19 H61        -3.0360    0.2050    2.5290 ha        1 7I2      0.101500
     20 H14         0.4440    0.1960   -3.5780 DU        1 7I2      0.201500
     21 H151        3.5800   -0.9010   -1.5380 hn        1 7I2      0.408300
     22 H152        3.8520    0.1050   -2.7300 hn        1 7I2      0.408300
@<TRIPOS>BOND
     1    1    2 1   
     2    1    8 2   
     3    2    3 3   
     4    3    9 1   
     5    4    9 3   
     6    4   17 1   
     7    5    6 3   
     8    5   18 1   
     9    6   19 1   
    10    7    8 2   
    11    7   10 2   
    12   10   11 1   
    13   10   12 1   
    14   13   14 3   
    15   13   15 1   
    16   15   21 1   
    17   15   22 1   
@<TRIPOS>SUBSTRUCTURE
     1 7I2         1 TEMP              0 ****  ****    0 ROOT
