@<TRIPOS>MOLECULE
7I2
   22    23     1     0     0
SMALL
bcc


@<TRIPOS>ATOM
      1 N1          0.6750   -0.1570    0.7360 nc        1 7I2     -0.233400
      2 N2         -0.0700   -0.0500    1.8460 na        1 7I2      0.069700
      3 C3         -1.4270    0.1270    1.5950 cc        1 7I2     -0.120100
      4 C4         -2.6520    0.2410   -0.7040 ca        1 7I2     -0.025000
      5 C5         -2.4080    0.1760   -2.0510 ca        1 7I2     -0.171000
      6 C6         -1.0950   -0.0020   -2.5660 ca        1 7I2     -0.026000
      7 C7         -0.0000   -0.1100   -1.7300 ca        1 7I2     -0.148200
      8 C8         -0.1990   -0.0570   -0.3140 ca        1 7I2     -0.043000
      9 C9         -1.5690    0.1250    0.1890 ca        1 7I2     -0.148000
     10 N10         1.3570   -0.2780   -2.3020 no        1 7I2      0.318200
     11 O11         1.4460   -0.5790   -3.4660 o         1 7I2     -0.205000
     12 O12         2.3290   -0.1010   -1.6220 o         1 7I2     -0.205000
     13 C13         0.5050   -0.1040    3.2110 c2        1 7I2      0.718700
     14 N14        -0.0740   -0.7330    4.1900 n2        1 7I2     -0.837100
     15 N15         1.6830    0.6470    3.3880 nh        1 7I2     -0.883800
     16 H31        -2.1710    0.2500    2.3830 h4        1 7I2      0.192000
     17 H41        -3.6700    0.3820   -0.3090 ha        1 7I2      0.145000
     18 H51        -3.2340    0.2610   -2.7740 ha        1 7I2      0.149000
     19 H61        -0.9620   -0.0520   -3.6630 ha        1 7I2      0.171000
     20 H14        -0.9500   -1.1700    4.0100 hn        1 7I2      0.419400
     21 H151        2.1750    0.4380    4.2320 hn        1 7I2      0.432800
     22 H152        2.2700    0.7480    2.5880 hn        1 7I2      0.432800
@<TRIPOS>BOND
     1    1    2 1   
     2    1    8 2   
     3    2    3 1   
     4    2   13 1   
     5    3    9 2   
     6    3   16 1   
     7    4    5 ar  
     8    4    9 ar  
     9    4   17 1   
    10    5    6 ar  
    11    5   18 1   
    12    6    7 ar  
    13    6   19 1   
    14    7    8 ar  
    15    7   10 1   
    16    8    9 ar  
    17   10   11 1   
    18   10   12 1   
    19   13   14 2   
    20   13   15 1   
    21   14   20 1   
    22   15   21 1   
    23   15   22 1   
@<TRIPOS>SUBSTRUCTURE
     1 7I2         1 TEMP              0 ****  ****    0 ROOT
