@<TRIPOS>MOLECULE
7I2
   23    24     1     0     0
SMALL
bcc


@<TRIPOS>ATOM
      1 N1          0.0730   -0.0050    0.0290 nc        1 7I2     -0.278400
      2 N2          1.4350   -0.0050    0.0970 na        1 7I2      0.010700
      3 C3          1.9220   -0.0100    1.4210 cc        1 7I2     -0.069100
      4 C4          0.5750   -0.0190    3.6450 ca        1 7I2     -0.033000
      5 C5         -0.7070   -0.0210    4.1140 ca        1 7I2     -0.139000
      6 C6         -1.8370   -0.0180    3.2360 ca        1 7I2      0.018000
      7 C7         -1.6880   -0.0130    1.8660 ca        1 7I2     -0.180200
      8 C8         -0.3620   -0.0100    1.3140 ca        1 7I2      0.021000
      9 C9          0.7890   -0.0130    2.2430 ca        1 7I2     -0.116000
     10 N10        -2.8770   -0.0100    0.9750 no        1 7I2      0.325200
     11 O11        -3.9620   -0.0110    1.4870 o         1 7I2     -0.189000
     12 O12        -2.7270   -0.0070   -0.2170 o         1 7I2     -0.189000
     13 C13         2.2520   -0.0010   -1.0770 c2        1 7I2      0.647700
     14 N14         3.5300    0.0030   -1.2020 n2        1 7I2     -0.738100
     15 N15         1.4680    0.0000   -2.3740 n4        1 7I2     -0.803600
     16 H31         2.9850   -0.0110    1.6700 h4        1 7I2      0.204000
     17 H41         1.4420   -0.0210    4.3250 ha        1 7I2      0.168000
     18 H51        -0.9080   -0.0250    5.1990 ha        1 7I2      0.176000
     19 H61        -2.8500   -0.0200    3.6870 ha        1 7I2      0.196000
     20 H14         4.1180    0.0030   -0.3950 hn        1 7I2      0.488400
     21 H151        2.1150    0.0030   -3.1750 hn        1 7I2      0.493133
     22 H152        0.8680    0.8370   -2.4080 hn        1 7I2      0.493133
     23 H153        0.8720   -0.8390   -2.4120 hn        1 7I2      0.493133
@<TRIPOS>BOND
     1    1    2 1   
     2    1    8 2   
     3    2    3 1   
     4    2   13 1   
     5    3    9 2   
     6    3   16 1   
     7    4    5 ar  
     8    4    9 ar  
     9    4   17 1   
    10    5    6 ar  
    11    5   18 1   
    12    6    7 ar  
    13    6   19 1   
    14    7    8 ar  
    15    7   10 1   
    16    8    9 ar  
    17   10   11 1   
    18   10   12 1   
    19   13   14 2   
    20   13   15 1   
    21   14   20 1   
    22   15   21 1   
    23   15   22 1   
    24   15   23 1   
@<TRIPOS>SUBSTRUCTURE
     1 7I2         1 TEMP              0 ****  ****    0 ROOT
