@<TRIPOS>MOLECULE
7I6
   64    66     1     0     0
SMALL
bcc


@<TRIPOS>ATOM
      1 CAB         0.6140   -0.4580   -0.1060 c3        1 7I6     -0.070000
      2 SAW         2.2290   -0.0870    0.4510 ss        1 7I6     -0.171000
      3 CBB         2.2980   -0.5890    2.0730 ca        1 7I6      0.007900
      4 CAH         1.1690   -0.9700    2.8060 ca        1 7I6     -0.146000
      5 CAF         1.2760   -1.3460    4.1420 ca        1 7I6     -0.113000
      6 CAG         2.5220   -1.3390    4.7670 ca        1 7I6     -0.141000
      7 CAI         3.6550   -0.9630    4.0480 ca        1 7I6     -0.096000
      8 CBC         3.5590   -0.5950    2.7040 ca        1 7I6     -0.074300
      9 CBE         4.7780   -0.1900    1.9080 c3        1 7I6      0.140000
     10 CAQ         5.0370    1.3310    2.0670 c3        1 7I6     -0.086400
     11 CAN         6.3760    1.4750    2.7780 c3        1 7I6     -0.091400
     12 CAS         6.9590    0.0580    2.9030 c3        1 7I6      0.086000
     13 NBF         6.0130   -0.8670    2.3080 n         1 7I6     -0.460800
     14 C           6.3760   -2.0850    1.7690 c         1 7I6      0.654100
     15 O           5.6170   -2.7130    1.0040 o         1 7I6     -0.599100
     16 CA          7.7520   -2.6870    2.1620 c3        1 7I6      0.050700
     17 CB          8.6730   -2.4680    0.9470 c3        1 7I6     -0.093400
     18 CG         10.0760   -2.9380    1.2250 c3        1 7I6     -0.017300
     19 SD         11.1430   -2.1360    0.0610 ss        1 7I6     -0.306200
     20 CE         12.7150   -2.7630    0.5140 c3        1 7I6     -0.038000
     21 N           7.5650   -4.0630    2.5490 n         1 7I6     -0.558900
     22 CAX         8.4300   -4.6580    3.4760 c         1 7I6      0.748100
     23 OAD         9.2650   -3.9600    4.1070 o         1 7I6     -0.658100
     24 NAT         8.3650   -6.0610    3.6530 n         1 7I6     -0.521900
     25 CAP         9.0170   -6.6290    4.8110 c3        1 7I6      0.125300
     26 CBA         8.1970   -6.6540    6.0670 ca        1 7I6     -0.182300
     27 CAL         8.0300   -5.4820    6.8130 ca        1 7I6     -0.075500
     28 CAJ         7.2980   -5.4880    7.9920 ca        1 7I6     -0.197000
     29 CAZ         6.7000   -6.6840    8.4570 ca        1 7I6      0.149600
     30 NAC         5.8860   -6.6810    9.5930 nh        1 7I6     -0.822200
     31 CAK         6.8810   -7.8660    7.7000 ca        1 7I6     -0.197000
     32 CAM         7.6150   -7.8390    6.5210 ca        1 7I6     -0.075500
     33 H1          0.3450   -1.5290    0.0370 h1        1 7I6      0.069367
     34 H2          0.6250   -0.2320   -1.1990 h1        1 7I6      0.069367
     35 H3         -0.1630    0.1720    0.3820 h1        1 7I6      0.069367
     36 H4          0.1770   -0.9750    2.3270 ha        1 7I6      0.130000
     37 H5          0.3780   -1.6470    4.7000 ha        1 7I6      0.131000
     38 H6          2.6130   -1.6330    5.8220 ha        1 7I6      0.133000
     39 H7          4.6340   -0.9630    4.5510 ha        1 7I6      0.138000
     40 H8          4.5800   -0.4430    0.8180 h1        1 7I6      0.093700
     41 H9          5.0670    1.8110    1.0580 hc        1 7I6      0.061700
     42 H10         4.2150    1.8100    2.6520 hc        1 7I6      0.061700
     43 H11         6.2440    1.9260    3.7920 hc        1 7I6      0.054200
     44 H12         7.0700    2.1310    2.1990 hc        1 7I6      0.054200
     45 H13         7.9570   -0.0010    2.3850 h1        1 7I6      0.048200
     46 H14         7.1100   -0.2130    3.9850 h1        1 7I6      0.048200
     47 H15         8.1970   -2.1480    3.0530 h1        1 7I6      0.100700
     48 H16         8.6780   -1.3670    0.7180 hc        1 7I6      0.068200
     49 H17         8.2520   -2.9970    0.0520 hc        1 7I6      0.068200
     50 H18        10.1510   -4.0480    1.1190 h1        1 7I6      0.074700
     51 H19        10.3810   -2.6870    2.2730 h1        1 7I6      0.074700
     52 H20        12.9740   -2.5110    1.5670 h1        1 7I6      0.063033
     53 H21        12.7730   -3.8670    0.3900 h1        1 7I6      0.063033
     54 H22        13.4520   -2.2800   -0.1690 h1        1 7I6      0.063033
     55 H23         7.0360   -4.6230    1.9190 hn        1 7I6      0.325500
     56 H24         7.4900   -6.4880    3.4320 hn        1 7I6      0.291500
     57 H25         9.9660   -6.0500    5.0050 h1        1 7I6      0.072200
     58 H26         9.2960   -7.6850    4.5240 h1        1 7I6      0.072200
     59 H27         8.4900   -4.5460    6.4510 ha        1 7I6      0.141000
     60 H28         7.1780   -4.5530    8.5590 ha        1 7I6      0.132500
     61 H29         6.0680   -5.9390   10.2310 hn        1 7I6      0.391800
     62 H30         5.7840   -7.5680   10.0330 hn        1 7I6      0.391800
     63 H31         6.4330   -8.8120    8.0370 ha        1 7I6      0.132500
     64 H32         7.7430   -8.7690    5.9440 ha        1 7I6      0.141000
@<TRIPOS>BOND
     1    1    2 1   
     2    1   33 1   
     3    1   34 1   
     4    1   35 1   
     5    2    3 1   
     6    3    4 ar  
     7    3    8 ar  
     8    4    5 ar  
     9    4   36 1   
    10    5    6 ar  
    11    5   37 1   
    12    6    7 ar  
    13    6   38 1   
    14    7    8 ar  
    15    7   39 1   
    16    8    9 1   
    17    9   10 1   
    18    9   13 1   
    19    9   40 1   
    20   10   11 1   
    21   10   41 1   
    22   10   42 1   
    23   11   12 1   
    24   11   43 1   
    25   11   44 1   
    26   12   13 1   
    27   12   45 1   
    28   12   46 1   
    29   13   14 1   
    30   14   15 2   
    31   14   16 1   
    32   16   17 1   
    33   16   21 1   
    34   16   47 1   
    35   17   18 1   
    36   17   48 1   
    37   17   49 1   
    38   18   19 1   
    39   18   50 1   
    40   18   51 1   
    41   19   20 1   
    42   20   52 1   
    43   20   53 1   
    44   20   54 1   
    45   21   22 1   
    46   21   55 1   
    47   22   23 2   
    48   22   24 1   
    49   24   25 1   
    50   24   56 1   
    51   25   26 1   
    52   25   57 1   
    53   25   58 1   
    54   26   27 ar  
    55   26   32 ar  
    56   27   28 ar  
    57   27   59 1   
    58   28   29 ar  
    59   28   60 1   
    60   29   30 1   
    61   29   31 ar  
    62   30   61 1   
    63   30   62 1   
    64   31   32 ar  
    65   31   63 1   
    66   32   64 1   
@<TRIPOS>SUBSTRUCTURE
     1 7I6         1 TEMP              0 ****  ****    0 ROOT
