@<TRIPOS>MOLECULE
7I6
   66    68     1     0     0
SMALL
bcc


@<TRIPOS>ATOM
      1 CAB         0.9090   -2.2920    0.4080 c3        1 7I6     -0.068000
      2 SAW         2.5460   -1.6820    0.5070 ss        1 7I6     -0.168000
      3 CBB         2.7850   -1.1780    2.1080 ca        1 7I6      0.024900
      4 CAH         1.8030   -1.2900    3.1020 ca        1 7I6     -0.144000
      5 CAF         2.0340   -0.8300    4.3950 ca        1 7I6     -0.092000
      6 CAG         3.2570   -0.2430    4.7190 ca        1 7I6     -0.149000
      7 CAI         4.2420   -0.1270    3.7420 ca        1 7I6     -0.115000
      8 CBC         4.0240   -0.5970    2.4430 ca        1 7I6     -0.116300
      9 CBE         5.0890   -0.4350    1.3880 c3        1 7I6      0.153000
     10 CAQ         5.1870    1.0430    0.9390 c3        1 7I6     -0.087400
     11 CAN         6.5430    1.5610    1.4050 c3        1 7I6     -0.088400
     12 CAS         7.3050    0.3530    1.9740 c3        1 7I6      0.086000
     13 NBF         6.4410   -0.8070    1.8450 n         1 7I6     -0.437800
     14 C           6.8400   -2.0970    1.9810 c         1 7I6      0.621100
     15 O           6.1140   -3.0870    1.7410 o         1 7I6     -0.603100
     16 CA          8.2870   -2.3990    2.4980 c3        1 7I6     -0.000300
     17 CB          9.1370   -2.6830    1.2500 c3        1 7I6     -0.082400
     18 CG         10.6040   -2.8170    1.5670 c3        1 7I6      0.015900
     19 SD         11.6960   -3.0880    0.2180 s4        1 7I6     -0.152600
     20 CE         11.7600   -1.5710   -0.6030 c3        1 7I6     -0.045800
     21 N           8.2470   -3.5460    3.4080 ns        1 7I6     -0.483900
     22 CAX         8.0750   -3.2580    4.7620 c         1 7I6      0.616100
     23 OAD         8.5750   -2.2960    5.3560 o         1 7I6     -0.475100
     24 NAT         7.3210   -4.2370    5.6330 ny        1 7I6     -0.674800
     25 CAP         7.9760   -5.6050    5.7110 c3        1 7I6      0.216100
     26 CBA         7.2870   -6.4340    6.7150 ca        1 7I6     -0.310300
     27 CAL         7.7150   -6.4280    8.0550 ca        1 7I6     -0.027500
     28 CAJ         7.1080   -7.2310    8.9970 ca        1 7I6     -0.224000
     29 CAZ         6.0290   -8.0940    8.6300 ca        1 7I6      0.273600
     30 NAC         5.4190   -8.8840    9.5510 nv        1 7I6     -0.837200
     31 CAK         5.6060   -8.0910    7.2640 ca        1 7I6     -0.224000
     32 CAM         6.2280   -7.2790    6.3400 ca        1 7I6     -0.027500
     33 H1          0.7810   -2.5860   -0.6630 h1        1 7I6      0.081033
     34 H2          0.1470   -1.5210    0.6600 h1        1 7I6      0.081033
     35 H3          0.7420   -3.1870    1.0480 h1        1 7I6      0.081033
     36 H4          0.8250   -1.7380    2.8620 ha        1 7I6      0.148000
     37 H5          1.2430   -0.9180    5.1570 ha        1 7I6      0.149000
     38 H6          3.4330    0.1460    5.7320 ha        1 7I6      0.142000
     39 H7          5.1950    0.3650    3.9910 ha        1 7I6      0.122000
     40 H8          4.8450   -1.1030    0.5050 h1        1 7I6      0.098700
     41 H9          5.0960    1.1030   -0.1740 hc        1 7I6      0.082700
     42 H10         4.3540    1.6410    1.3850 hc        1 7I6      0.082700
     43 H11         6.4220    2.3420    2.1960 hc        1 7I6      0.072200
     44 H12         7.1130    2.0160    0.5580 hc        1 7I6      0.072200
     45 H13         7.5590    0.5220    3.0580 h1        1 7I6      0.035700
     46 H14         8.2640    0.1850    1.4100 h1        1 7I6      0.035700
     47 H15         8.7190   -1.5160    3.0570 h1        1 7I6      0.115700
     48 H16         8.7530   -3.6110    0.7430 hc        1 7I6      0.087700
     49 H17         8.9730   -1.8180    0.5490 hc        1 7I6      0.087700
     50 H18        10.9550   -1.9080    2.1290 h1        1 7I6      0.142200
     51 H19        10.7660   -3.6970    2.2540 h1        1 7I6      0.142200
     52 H20        12.3540   -0.8400    0.0080 h1        1 7I6      0.148700
     53 H21        10.7810   -1.0870   -0.8410 h1        1 7I6      0.148700
     54 H22        12.3070   -1.6990   -1.5780 h1        1 7I6      0.148700
     55 H23        10.8770   -3.7330   -0.5870 hs        1 7I6      0.364000
     56 H24         6.3560   -4.3400    5.2980 hn        1 7I6      0.471800
     57 H25         9.0550   -5.4290    5.9860 hx        1 7I6      0.094700
     58 H26         7.9150   -6.0620    4.6840 hx        1 7I6      0.094700
     59 H27         8.5560   -5.7840    8.3580 ha        1 7I6      0.133000
     60 H28         7.4650   -7.2140   10.0400 ha        1 7I6      0.160500
     61 H29         4.6910   -9.5010    9.2820 hn        1 7I6      0.454300
     62 H30         5.7380   -8.9010   10.4890 hn        1 7I6      0.454300
     63 H31         4.7820   -8.7490    6.9460 ha        1 7I6      0.160500
     64 H32         5.8940   -7.3060    5.2900 ha        1 7I6      0.133000
     65 H2A         7.6990   -4.3040    3.0320 hn        1 7I6      0.333500
     66 HAT2        7.2840   -3.8390    6.5850 hn        1 7I6      0.471800
@<TRIPOS>BOND
     1    1    2 1   
     2    1   33 1   
     3    1   34 1   
     4    1   35 1   
     5    2    3 1   
     6    3    4 ar  
     7    3    8 ar  
     8    4    5 ar  
     9    4   36 1   
    10    5    6 ar  
    11    5   37 1   
    12    6    7 ar  
    13    6   38 1   
    14    7    8 ar  
    15    7   39 1   
    16    8    9 1   
    17    9   10 1   
    18    9   13 1   
    19    9   40 1   
    20   10   11 1   
    21   10   41 1   
    22   10   42 1   
    23   11   12 1   
    24   11   43 1   
    25   11   44 1   
    26   12   13 1   
    27   12   45 1   
    28   12   46 1   
    29   13   14 1   
    30   14   15 2   
    31   14   16 1   
    32   16   17 1   
    33   16   21 1   
    34   16   47 1   
    35   17   18 1   
    36   17   48 1   
    37   17   49 1   
    38   18   19 1   
    39   18   50 1   
    40   18   51 1   
    41   19   20 1   
    42   19   55 1   
    43   20   52 1   
    44   20   53 1   
    45   20   54 1   
    46   21   22 1   
    47   21   65 1   
    48   22   23 2   
    49   22   24 1   
    50   24   25 1   
    51   24   56 1   
    52   24   66 1   
    53   25   26 1   
    54   25   57 1   
    55   25   58 1   
    56   26   27 ar  
    57   26   32 ar  
    58   27   28 ar  
    59   27   59 1   
    60   28   29 ar  
    61   28   60 1   
    62   29   30 1   
    63   29   31 ar  
    64   30   61 1   
    65   30   62 1   
    66   31   32 ar  
    67   31   63 1   
    68   32   64 1   
@<TRIPOS>SUBSTRUCTURE
     1 7I6         1 TEMP              0 ****  ****    0 ROOT
