@<TRIPOS>MOLECULE
7I6
   66    68     1     0     0
SMALL
bcc


@<TRIPOS>ATOM
      1 CAB         0.9040   -2.3880    0.4050 c3        1 7I6     -0.068000
      2 SAW         2.5320   -1.7540    0.5010 ss        1 7I6     -0.168000
      3 CBB         2.7630   -1.2380    2.0990 ca        1 7I6      0.024900
      4 CAH         1.7830   -1.3590    3.0940 ca        1 7I6     -0.144000
      5 CAF         2.0060   -0.8890    4.3850 ca        1 7I6     -0.092000
      6 CAG         3.2210   -0.2830    4.7050 ca        1 7I6     -0.149000
      7 CAI         4.2050   -0.1580    3.7280 ca        1 7I6     -0.115000
      8 CBC         3.9940   -0.6370    2.4320 ca        1 7I6     -0.116300
      9 CBE         5.0570   -0.4650    1.3770 c3        1 7I6      0.153000
     10 CAQ         5.1340    1.0120    0.9200 c3        1 7I6     -0.087400
     11 CAN         6.4820    1.5510    1.3840 c3        1 7I6     -0.088400
     12 CAS         7.2610    0.3570    1.9590 c3        1 7I6      0.086000
     13 NBF         6.4140   -0.8150    1.8360 n         1 7I6     -0.437800
     14 C           6.8310   -2.0990    1.9780 c         1 7I6      0.621100
     15 O           6.1200   -3.1000    1.7420 o         1 7I6     -0.603100
     16 CA          8.2820   -2.3770    2.4980 c3        1 7I6     -0.000300
     17 CB          9.1370   -2.6560    1.2510 c3        1 7I6     -0.082400
     18 CG         10.6060   -2.7670    1.5690 c3        1 7I6      0.015900
     19 SD         11.7020   -3.0290    0.2220 s4        1 7I6     -0.152600
     20 CE         11.7450   -1.5150   -0.6060 c3        1 7I6     -0.045800
     21 N           8.2580   -3.5210    3.4130 n         1 7I6     -0.483900
     22 CAX         8.0810   -3.2280    4.7650 c         1 7I6      0.616100
     23 OAD         8.5650   -2.2560    5.3550 o         1 7I6     -0.475100
     24 NAT         7.3400   -4.2140    5.6400 n4        1 7I6     -0.674800
     25 CAP         8.0140   -5.5710    5.7260 c3        1 7I6      0.216100
     26 CBA         7.3350   -6.4050    6.7330 ca        1 7I6     -0.310300
     27 CAL         7.7610   -6.3880    8.0730 ca        1 7I6     -0.027500
     28 CAJ         7.1640   -7.1950    9.0180 ca        1 7I6     -0.224000
     29 CAZ         6.0980   -8.0740    8.6540 ca        1 7I6      0.273600
     30 NAC         5.4980   -8.8690    9.5780 nh        1 7I6     -0.837200
     31 CAK         5.6770   -8.0840    7.2870 ca        1 7I6     -0.224000
     32 CAM         6.2890   -7.2670    6.3610 ca        1 7I6     -0.027500
     33 H1          0.7810   -2.6880   -0.6640 h1        1 7I6      0.081033
     34 H2          0.7500   -3.2810    1.0500 h1        1 7I6      0.081033
     35 H3          0.1310   -1.6260    0.6530 h1        1 7I6      0.081033
     36 H4          0.8120   -1.8220    2.8560 ha        1 7I6      0.148000
     37 H5          1.2170   -0.9840    5.1470 ha        1 7I6      0.149000
     38 H6          3.3920    0.1140    5.7170 ha        1 7I6      0.142000
     39 H7          5.1510    0.3500    3.9750 ha        1 7I6      0.122000
     40 H8          4.8220   -1.1410    0.4960 h1        1 7I6      0.098700
     41 H9          5.0430    1.0650   -0.1930 hc        1 7I6      0.082700
     42 H10         4.2910    1.6000    1.3620 hc        1 7I6      0.082700
     43 H11         6.3490    2.3340    2.1720 hc        1 7I6      0.072200
     44 H12         7.0450    2.0110    0.5350 hc        1 7I6      0.072200
     45 H13         7.5130    0.5350    3.0430 h1        1 7I6      0.035700
     46 H14         8.2220    0.2010    1.3960 h1        1 7I6      0.035700
     47 H15         8.7010   -1.4860    3.0520 h1        1 7I6      0.115700
     48 H16         8.9610   -1.7960    0.5450 hc        1 7I6      0.087700
     49 H17         8.7660   -3.5920    0.7480 hc        1 7I6      0.087700
     50 H18        10.9430   -1.8510    2.1280 h1        1 7I6      0.142200
     51 H19        10.7790   -3.6420    2.2600 h1        1 7I6      0.142200
     52 H20        10.7590   -1.0470   -0.8480 h1        1 7I6      0.148700
     53 H21        12.3270   -0.7720    0.0020 h1        1 7I6      0.148700
     54 H22        12.2940   -1.6410   -1.5800 h1        1 7I6      0.148700
     55 H23        10.8930   -3.6900   -0.5800 hs        1 7I6      0.364000
     56 H24         6.3770   -4.3330    5.3040 hn        1 7I6      0.471300
     57 H25         7.9610   -6.0340    4.7010 hx        1 7I6      0.094700
     58 H26         9.0900   -5.3790    6.0020 hx        1 7I6      0.094700
     59 H27         8.5920   -5.7300    8.3750 ha        1 7I6      0.133000
     60 H28         7.5190   -7.1680   10.0610 ha        1 7I6      0.160500
     61 H29         5.8150   -8.8770   10.5160 hn        1 7I6      0.454300
     62 H30         4.7790   -9.4970    9.3100 hn        1 7I6      0.454300
     63 H31         4.8630   -8.7560    6.9710 ha        1 7I6      0.160500
     64 H32         5.9570   -7.3040    5.3100 ha        1 7I6      0.133000
     65 H2A         7.7210   -4.2890    3.0400 hn        1 7I6      0.333500
     66 HAT2        7.2950   -3.8120    6.5900 hn        1 7I6      0.471300
@<TRIPOS>BOND
     1    1    2 1   
     2    1   33 1   
     3    1   34 1   
     4    1   35 1   
     5    2    3 1   
     6    3    4 ar  
     7    3    8 ar  
     8    4    5 ar  
     9    4   36 1   
    10    5    6 ar  
    11    5   37 1   
    12    6    7 ar  
    13    6   38 1   
    14    7    8 ar  
    15    7   39 1   
    16    8    9 1   
    17    9   10 1   
    18    9   13 1   
    19    9   40 1   
    20   10   11 1   
    21   10   41 1   
    22   10   42 1   
    23   11   12 1   
    24   11   43 1   
    25   11   44 1   
    26   12   13 1   
    27   12   45 1   
    28   12   46 1   
    29   13   14 1   
    30   14   15 2   
    31   14   16 1   
    32   16   17 1   
    33   16   21 1   
    34   16   47 1   
    35   17   18 1   
    36   17   48 1   
    37   17   49 1   
    38   18   19 1   
    39   18   50 1   
    40   18   51 1   
    41   19   20 1   
    42   19   55 1   
    43   20   52 1   
    44   20   53 1   
    45   20   54 1   
    46   21   22 1   
    47   21   65 1   
    48   22   23 2   
    49   22   24 1   
    50   24   25 1   
    51   24   56 1   
    52   24   66 1   
    53   25   26 1   
    54   25   57 1   
    55   25   58 1   
    56   26   27 ar  
    57   26   32 ar  
    58   27   28 ar  
    59   27   59 1   
    60   28   29 ar  
    61   28   60 1   
    62   29   30 1   
    63   29   31 ar  
    64   30   61 1   
    65   30   62 1   
    66   31   32 ar  
    67   31   63 1   
    68   32   64 1   
@<TRIPOS>SUBSTRUCTURE
     1 7I6         1 TEMP              0 ****  ****    0 ROOT
