@<TRIPOS>MOLECULE
7IG
   45    37     1     0     0
SMALL
bcc


@<TRIPOS>ATOM
      1 C1          3.7920    0.3450   -1.2130 c1        1 7IG      0.250800
      2 N1          5.1370    0.3320   -1.2190 n1        1 7IG     -0.619800
      3 C2          5.8270    0.1090   -0.0540 c1        1 7IG      0.561600
      4 N2          5.1480   -0.1010    1.1140 n1        1 7IG     -0.581800
      5 C3          3.8040   -0.0890    1.1230 c1        1 7IG      0.453700
      6 C4          3.1100    0.1350   -0.0440 c1        1 7IG     -0.261000
      7 N3          3.0860    0.5080   -2.4220 n3        1 7IG     -0.806400
      8 N4          7.2410    0.1680   -0.0490 n3        1 7IG     -0.788400
      9 C5          3.0520   -0.2340    2.4380 c3        1 7IG     -0.068300
     10 C6          3.9970   -0.6900    3.5060 c3        1 7IG     -0.082100
     11 C7         -0.3480   -1.2870   -0.2290 c1        1 7IG     -0.133500
     12 C8          1.0430   -1.2020   -0.1720 c1        1 7IG     -0.029500
     13 C9          1.6630    0.0430   -0.0530 c1        1 7IG     -0.061000
     14 C10         0.8850    1.2060    0.0090 c1        1 7IG     -0.081000
     15 C11        -0.5090    1.1170   -0.0490 c1        1 7IG     -0.081000
     16 C12        -1.1230   -0.1280   -0.1680 c1        1 7IG      0.115800
     17 N5         -2.5450   -0.2230   -0.1700 n3        1 7IG     -0.700800
     18 C13        -6.9870    1.0440   -0.3150 c1        1 7IG      0.123600
     19 C14        -5.6190    1.2590   -0.4530 c1        1 7IG     -0.107500
     20 C15        -4.7970    0.2370   -0.9220 c1        1 7IG     -0.013100
     21 C16        -5.3460   -1.0080   -1.2540 c1        1 7IG     -0.136500
     22 C17        -6.7140   -1.2240   -1.1160 c1        1 7IG      0.123600
     23 C18        -7.5370   -0.2000   -0.6460 c1        1 7IG     -0.136500
     24 F1         -7.7890    2.0540    0.0490 f         1 7IG     -0.098600
     25 C19        -3.3120    0.4990   -1.1470 c3        1 7IG      0.193900
     26 F2         -7.2710   -2.3900   -1.5840 f         1 7IG     -0.098600
     27 HN31        3.5300    0.8010   -3.1830 hn        1 7IG      0.421800
     28 HN32        2.1830    0.3650   -2.4460 hn        1 7IG      0.421800
     29 HN41        7.6850    0.2340    0.7310 hn        1 7IG      0.422800
     30 HN42        7.7000    0.1740   -0.8380 hn        1 7IG      0.422800
     31 H51         2.3430   -0.8860    2.3350 hc        1 7IG      0.061200
     32 H52         2.6690    0.6250    2.6890 hc        1 7IG      0.061200
     33 H61         3.5290   -1.2940    4.1230 hc        1 7IG      0.039700
     34 H62         4.3320    0.0890    4.0030 hc        1 7IG      0.039700
     35 H63         4.7500   -1.1640    3.0940 hc        1 7IG      0.039700
     36 H7         -0.7880   -2.1760   -0.3130 ha        1 7IG      0.075500
     37 H8          1.5770   -2.0040   -0.2140 ha        1 7IG      0.079500
     38 H10         1.3150    2.0770    0.0930 ha        1 7IG      0.081000
     39 H11        -1.0590    1.9350   -0.0060 ha        1 7IG      0.081000
     40 HN5        -2.9670   -0.7990    0.4100 hn        1 7IG      0.400800
     41 H14        -5.2260    2.1480   -0.2160 ha        1 7IG      0.102500
     42 H16        -4.7650   -1.7290   -1.5840 ha        1 7IG      0.103000
     43 H18        -8.5010   -0.3520   -0.5490 ha        1 7IG      0.103000
     44 H191       -3.0650    0.2050   -2.0320 h1        1 7IG      0.054200
     45 H192       -3.1300    1.4710   -1.0580 h1        1 7IG      0.054200
@<TRIPOS>BOND
     1    1    6 3   
     2    1    7 1   
     3    2    3 3   
     4    3    8 1   
     5    4    5 3   
     6    5    9 1   
     7    7   27 1   
     8    7   28 1   
     9    8   29 1   
    10    8   30 1   
    11    9   10 1   
    12    9   31 1   
    13    9   32 1   
    14   10   33 1   
    15   10   34 1   
    16   10   35 1   
    17   11   16 3   
    18   11   36 1   
    19   12   13 3   
    20   12   37 1   
    21   14   15 3   
    22   14   38 1   
    23   15   39 1   
    24   16   17 1   
    25   17   25 1   
    26   17   40 1   
    27   18   23 3   
    28   18   24 1   
    29   19   20 3   
    30   19   41 1   
    31   20   25 1   
    32   21   22 3   
    33   21   42 1   
    34   22   26 1   
    35   23   43 1   
    36   25   44 1   
    37   25   45 1   
@<TRIPOS>SUBSTRUCTURE
     1 7IG         1 TEMP              0 ****  ****    0 ROOT
