@<TRIPOS>MOLECULE
7IG
   45    45     1     0     0
SMALL
bcc


@<TRIPOS>ATOM
      1 C1          0.3950   -0.6370    0.1950 c2        1 7IG      0.208000
      2 N1          1.7510   -0.4680    0.3090 n2        1 7IG     -0.300000
      3 C2          2.2470   -0.2010    1.5680 c2        1 7IG      0.185000
      4 N2          1.4950   -0.1810    2.7370 n2        1 7IG     -0.253000
      5 C3          0.1640   -0.3590    2.5950 c2        1 7IG      0.108000
      6 C4         -0.4660   -0.5690    1.3430 c2        1 7IG     -0.262000
      7 N3         -0.1210   -0.8220   -1.0850 nv        1 7IG     -0.332000
      8 N4          3.6060    0.1160    1.6710 nv        1 7IG     -0.325000
      9 C5         -0.6550   -0.3280    3.8210 c2        1 7IG     -0.156000
     10 C6         -0.3170   -0.9370    4.9570 c2        1 7IG     -0.161000
     11 C7         -3.8540   -1.3610   -0.2450 c3        1 7IG     -0.192000
     12 C8         -2.4790   -1.5020    0.1820 c1        1 7IG     -0.052000
     13 C9         -1.9490   -0.7000    1.2850 c3        1 7IG     -0.068000
     14 C10        -2.6260    0.6330    1.3940 c2        1 7IG     -0.110000
     15 C11        -3.8940    0.8090    1.0020 c2        1 7IG     -0.216000
     16 C12        -4.6900   -0.2930    0.4320 c2        1 7IG     -0.002000
     17 N5         -5.9760   -0.4130    0.4510 n2        1 7IG     -0.189000
     18 C13        -9.2940    2.3690    2.2610 c2        1 7IG     -0.007000
     19 C14        -9.1220    1.1110    1.7550 c2        1 7IG     -0.162000
     20 C15        -8.2630    0.1110    1.1680 c3        1 7IG     -0.106000
     21 C16       -14.3010    1.3320    2.2930 c1        1 7IG      0.154000
     22 C17       -13.3830    0.6960    3.0050 c2        1 7IG     -0.330000
     23 C18       -10.4280    1.4940    2.2240 c1        1 7IG      0.042000
     24 C19        -6.8070    0.5840    1.0730 c3        1 7IG     -0.095000
     25 F2        -13.4730   -0.2240    3.9880 f         1 7IG     -0.093000
     26 HN31       -0.9300   -1.4140   -1.1270 hn        1 7IG      0.222000
     27 HN32        0.5440   -0.9750   -1.8110 hn        1 7IG      0.222000
     28 HN41        4.1830   -0.1380    0.9040 hn        1 7IG      0.222000
     29 HN42        4.0130    0.0410    2.5740 hn        1 7IG      0.222000
     30 H51        -2.7820    0.4470    5.6730 ha        1 7IG      0.000500
     31 H52        -3.3260    0.6940    5.9910 ha        1 7IG      0.000500
     32 H61        -1.5850    0.2600    3.7360 ha        1 7IG      0.131000
     33 H62         0.6100   -1.5160    5.0740 ha        1 7IG      0.123000
     34 H63        -0.9580   -0.8920    5.8480 ha        1 7IG      0.123000
     35 H7         -4.3380   -2.3800   -0.1460 hc        1 7IG      0.166000
     36 H8         -3.8290   -1.1450   -1.3560 hc        1 7IG      0.166000
     37 H10        -2.2670   -1.3210    2.1970 hc        1 7IG      0.160000
     38 H11        -2.0200    1.4600    1.7970 ha        1 7IG      0.149000
     39 HN5        -4.3860    1.7930    1.0770 ha        1 7IG      0.139000
     40 H14        -8.3240   -0.8320    1.7830 hc        1 7IG      0.135500
     41 H16        -8.6530   -0.1490    0.1420 hc        1 7IG      0.135500
     42 H18       -12.3140    0.9810    2.7350 h4        1 7IG      0.244000
     43 H191       -6.7770    1.5380    0.4700 h1        1 7IG      0.086500
     44 H192       -6.4450    0.8380    2.1120 h1        1 7IG      0.086500
     45 F1         -8.7280    3.5120    2.5410 f         1 7IG     -0.018000
@<TRIPOS>BOND
     1    1    2 1   
     2    1    6 1   
     3    1    7 1   
     4    2    3 1   
     5    3    4 1   
     6    3    8 1   
     7    4    5 1   
     8    5    6 1   
     9    5    9 1   
    10    6   13 1   
    11    7   26 1   
    12    7   27 1   
    13    8   28 1   
    14    8   29 1   
    15    9   10 1   
    16    9   32 1   
    17   10   33 1   
    18   10   34 1   
    19   11   12 1   
    20   11   16 1   
    21   11   35 1   
    22   11   36 1   
    23   12   13 1   
    24   13   14 1   
    25   13   37 1   
    26   14   15 1   
    27   14   38 1   
    28   15   16 1   
    29   15   39 1   
    30   16   17 1   
    31   17   24 1   
    32   18   19 1   
    33   18   23 1   
    34   18   45 1   
    35   19   20 1   
    36   19   23 1   
    37   20   24 1   
    38   20   40 1   
    39   20   41 1   
    40   21   22 1   
    41   22   25 1   
    42   22   42 1   
    43   24   43 1   
    44   24   44 1   
    45   30   31 1   
@<TRIPOS>SUBSTRUCTURE
     1 7IG         1 TEMP              0 ****  ****    0 ROOT
