@<TRIPOS>MOLECULE
7IG
   45    47     1     0     0
SMALL
bcc


@<TRIPOS>ATOM
      1 C1          4.4820   -1.3940    0.1690 ca        1 7IG      0.718200
      2 N1          5.8460   -1.3600    0.0740 nb        1 7IG     -0.821000
      3 C2          6.4140   -0.1240   -0.1720 ca        1 7IG      0.898900
      4 N2          5.7200    1.0710   -0.2880 nb        1 7IG     -0.788000
      5 C3          4.3730    1.0040   -0.2100 ca        1 7IG      0.521600
      6 C4          3.6800   -0.2100   -0.0050 cp        1 7IG     -0.382600
      7 N3          3.8760   -2.5980    0.5040 nh        1 7IG     -0.945500
      8 N4          7.8000   -0.0880   -0.3830 nh        1 7IG     -0.925500
      9 C5          3.6130    2.2990   -0.3450 c3        1 7IG     -0.138700
     10 C6          3.8870    3.2320    0.8080 c3        1 7IG     -0.086100
     11 C7          0.1830   -0.7100    1.2850 ca        1 7IG     -0.188500
     12 C8          1.5660   -0.6090    1.2370 ca        1 7IG     -0.089000
     13 C9          2.2270   -0.2990    0.0390 cp        1 7IG     -0.058000
     14 C10         1.4600   -0.0970   -1.1160 ca        1 7IG     -0.089000
     15 C11         0.0740   -0.1980   -1.0850 ca        1 7IG     -0.188500
     16 C12        -0.5960   -0.5130    0.1190 ca        1 7IG      0.139600
     17 N5         -1.9850   -0.7210    0.1650 nh        1 7IG     -0.726600
     18 C13        -6.2680    1.3510   -0.1980 ca        1 7IG      0.152900
     19 C14        -4.9000    1.2720   -0.5160 ca        1 7IG     -0.172000
     20 C15        -4.2490    0.0390   -0.4480 ca        1 7IG     -0.054300
     21 C16        -4.9420   -1.1100   -0.0640 ca        1 7IG     -0.172000
     22 C17        -6.3090   -1.0210    0.2570 ca        1 7IG      0.152900
     23 C18        -6.9850    0.2090    0.1920 ca        1 7IG     -0.203000
     24 C19        -2.7980   -0.0500   -0.8280 c3        1 7IG      0.226100
     25 F2         -6.9840   -2.1330    0.6310 f         1 7IG     -0.132400
     26 HN31        4.4100   -3.4310    0.4150 hn        1 7IG      0.424800
     27 HN32        2.9070   -2.6680    0.2980 hn        1 7IG      0.424800
     28 HN41        8.2330    0.8010   -0.2900 hn        1 7IG      0.422800
     29 HN42        8.3180   -0.8620   -0.0350 hn        1 7IG      0.422800
     30 H51         2.5140    2.0800   -0.4000 hc        1 7IG      0.060200
     31 H52         3.9050    2.7960   -1.3100 hc        1 7IG      0.060200
     32 H61         3.6300    2.7470    1.7800 hc        1 7IG      0.039700
     33 H62         4.9640    3.5280    0.8350 hc        1 7IG      0.039700
     34 H63         3.2680    4.1560    0.7000 hc        1 7IG      0.039700
     35 H7         -0.3050   -0.9510    2.2420 ha        1 7IG      0.134000
     36 H8          2.1560   -0.7700    2.1530 ha        1 7IG      0.140500
     37 H10         1.9630    0.1470   -2.0640 ha        1 7IG      0.140500
     38 H11        -0.4930   -0.0410   -2.0140 ha        1 7IG      0.134000
     39 HN5        -2.3610   -0.6630    1.0900 hn        1 7IG      0.399800
     40 H14        -4.3610    2.1820   -0.8150 ha        1 7IG      0.161000
     41 H16        -4.4330   -2.0850   -0.0150 ha        1 7IG      0.161000
     42 H18        -8.0540    0.2750    0.4420 ha        1 7IG      0.168000
     43 H191       -2.4070    0.9890   -1.0490 h1        1 7IG      0.054700
     44 H192       -2.7210   -0.6470   -1.7850 h1        1 7IG      0.054700
     45 F1         -6.9030    2.5450   -0.2670 f         1 7IG     -0.132400
@<TRIPOS>BOND
     1    1    2 ar  
     2    1    6 ar  
     3    1    7 1   
     4    2    3 ar  
     5    3    4 ar  
     6    3    8 1   
     7    4    5 ar  
     8    5    6 ar  
     9    5    9 1   
    10    6   13 1   
    11    7   26 1   
    12    7   27 1   
    13    8   28 1   
    14    8   29 1   
    15    9   10 1   
    16    9   30 1   
    17    9   31 1   
    18   10   32 1   
    19   10   33 1   
    20   10   34 1   
    21   11   12 ar  
    22   11   16 ar  
    23   11   35 1   
    24   12   13 ar  
    25   12   36 1   
    26   13   14 ar  
    27   14   15 ar  
    28   14   37 1   
    29   15   16 ar  
    30   15   38 1   
    31   16   17 1   
    32   17   24 1   
    33   17   39 1   
    34   18   19 ar  
    35   18   23 ar  
    36   18   45 1   
    37   19   20 ar  
    38   19   40 1   
    39   20   21 ar  
    40   20   24 1   
    41   21   22 ar  
    42   21   41 1   
    43   22   23 ar  
    44   22   25 1   
    45   23   42 1   
    46   24   43 1   
    47   24   44 1   
@<TRIPOS>SUBSTRUCTURE
     1 7IG         1 TEMP              0 ****  ****    0 ROOT
