@<TRIPOS>MOLECULE
7IG
   45    46     1     0     0
SMALL
bcc


@<TRIPOS>ATOM
      1 C1         -0.5770   -0.2370   -0.0230 c2        1 7IG      0.205000
      2 N1          0.5990    0.3910   -0.3430 n2        1 7IG     -0.300000
      3 C2          1.1610    1.2010    0.6210 c2        1 7IG      0.183000
      4 N2          0.6210    1.4380    1.8770 n2        1 7IG     -0.260000
      5 C3         -0.5320    0.8010    2.1720 c2        1 7IG      0.082000
      6 C4         -1.2000   -0.0530    1.2610 c2        1 7IG     -0.262000
      7 N3         -1.1790   -1.0030   -1.0170 nh        1 7IG     -0.332000
      8 N4          2.4080    1.7730    0.3350 nh        1 7IG     -0.325000
      9 C5         -1.0860    1.0420    3.5550 c3        1 7IG     -0.128000
     10 C6         -0.5390    0.0350    4.5380 c3        1 7IG     -0.209000
     11 C7         -4.1730   -2.4490    0.9600 c3        1 7IG     -0.195000
     12 C8         -2.8120   -1.9530    0.9850 c1        1 7IG     -0.053000
     13 C9         -2.4930   -0.6870    1.6470 c3        1 7IG     -0.070000
     14 C10        -3.6330    0.2830    1.5800 c2        1 7IG     -0.116000
     15 C11        -4.9060   -0.1320    1.5500 c2        1 7IG     -0.220000
     16 C12        -5.2450   -1.5670    1.5710 c2        1 7IG      0.005000
     17 N5         -6.3180   -2.1160    2.0390 n2        1 7IG     -0.192000
     18 C13       -10.5300   -0.0310    3.1610 c2        1 7IG      0.003000
     19 C14        -9.4160   -0.0270    2.3720 c2        1 7IG     -0.175000
     20 C15        -8.3720   -0.7440    1.6750 c3        1 7IG     -0.125000
     21 C16        -7.3260    2.4220    1.1370 c1        1 7IG      0.132000
     22 C17        -8.1480    3.4350    1.3810 c2        1 7IG     -0.284000
     23 C18       -10.0330    1.2330    2.6950 c1        1 7IG      0.032000
     24 C19        -7.3610   -1.3480    2.6630 c3        1 7IG     -0.086000
     25 F2         -8.0650    4.7460    1.0830 f         1 7IG     -0.082000
     26 HN31       -1.6880   -1.7990   -0.6770 hn        1 7IG      0.221000
     27 HN32       -0.6280   -1.1820   -1.8280 hn        1 7IG      0.221000
     28 HN41        2.6610    1.8250   -0.6240 hn        1 7IG      0.219500
     29 HN42        2.6800    2.5410    0.9030 hn        1 7IG      0.219500
     30 H51        -0.8170    2.0780    3.9020 hc        1 7IG      0.098500
     31 H52        -2.2060    0.9950    3.5270 hc        1 7IG      0.098500
     32 H61        -0.9770    0.2180    5.5500 hc        1 7IG      0.080333
     33 H62        -0.7880   -1.0080    4.2280 hc        1 7IG      0.080333
     34 H63         0.5720    0.1240    4.6110 hc        1 7IG      0.080333
     35 H7         -4.1620   -3.4730    1.4400 hc        1 7IG      0.165000
     36 H8         -4.4340   -2.6260   -0.1280 hc        1 7IG      0.165000
     37 H10        -2.3870   -1.0230    2.7410 hc        1 7IG      0.156000
     38 H11        -3.3680    1.3510    1.5410 ha        1 7IG      0.147000
     39 HN5        -5.7440    0.5880    1.4870 ha        1 7IG      0.166000
     40 H14        -8.8240   -1.5630    1.0490 hc        1 7IG      0.127000
     41 H16        -7.8400   -0.0300    0.9810 hc        1 7IG      0.127000
     42 H18        -9.0870    3.1400    1.9370 h4        1 7IG      0.231000
     43 H191       -6.9540   -0.5140    3.3050 h1        1 7IG      0.093000
     44 H192       -7.9020   -2.0710    3.3380 h1        1 7IG      0.093000
     45 F1        -11.3830   -0.7570    3.8310 f         1 7IG     -0.016000
@<TRIPOS>BOND
     1    1    2 1   
     2    1    6 1   
     3    1    7 1   
     4    2    3 1   
     5    3    4 1   
     6    3    8 1   
     7    4    5 1   
     8    5    6 1   
     9    5    9 1   
    10    6   13 1   
    11    7   26 1   
    12    7   27 1   
    13    8   28 1   
    14    8   29 1   
    15    9   10 1   
    16    9   30 1   
    17    9   31 1   
    18   10   32 1   
    19   10   33 1   
    20   10   34 1   
    21   11   12 1   
    22   11   16 1   
    23   11   35 1   
    24   11   36 1   
    25   12   13 1   
    26   13   14 1   
    27   13   37 1   
    28   14   15 1   
    29   14   38 1   
    30   15   16 1   
    31   15   39 1   
    32   16   17 1   
    33   17   24 1   
    34   18   19 1   
    35   18   23 1   
    36   18   45 1   
    37   19   20 1   
    38   19   23 1   
    39   20   24 1   
    40   20   40 1   
    41   20   41 1   
    42   21   22 1   
    43   22   25 1   
    44   22   42 1   
    45   24   43 1   
    46   24   44 1   
@<TRIPOS>SUBSTRUCTURE
     1 7IG         1 TEMP              0 ****  ****    0 ROOT
