@<TRIPOS>MOLECULE
7IG
   48    47     1     0     0
SMALL
bcc


@<TRIPOS>ATOM
      1 C1         -0.0720    0.4600   -0.1090 c2        1 7IG      0.233000
      2 N1          1.2910    0.6100   -0.3400 n2        1 7IG     -0.199000
      3 C2          2.1170    0.2930    0.6870 c2        1 7IG      0.072000
      4 N2          1.7670   -0.1480    1.9440 n2        1 7IG     -0.159000
      5 C3          0.4460   -0.2840    2.1490 c2        1 7IG      0.053000
      6 C4         -0.5350   -0.0200    1.1710 c2        1 7IG     -0.280000
      7 N3         -0.9330    0.7100   -1.1420 nh        1 7IG     -0.317000
      8 N4          3.5820    0.4570    0.4340 n4        1 7IG     -0.016000
      9 C5         -1.6910   -0.1270    5.0420 c2        1 7IG     -0.237500
     10 C6         -1.8660   -1.4040    4.7170 c2        1 7IG     -0.237500
     11 C7         -3.9640   -1.5710    0.6480 c3        1 7IG     -0.255000
     12 C8         -2.5580   -1.4230    0.9330 c2        1 7IG      0.283000
     13 C9         -1.9750   -0.2140    1.5000 c3        1 7IG     -0.105000
     14 C10        -2.8340    0.9910    1.2970 c2        1 7IG     -0.172000
     15 C11        -4.1510    0.9000    1.0980 c2        1 7IG     -0.137000
     16 C12        -4.9000   -0.4050    1.0350 c3        1 7IG     -0.020000
     17 N5         -5.5580   -0.7050    2.3010 n2        1 7IG     -0.165000
     18 C13        -9.5080    0.5920    4.8590 c2        1 7IG     -0.173000
     19 C14        -8.4730   -0.0590    4.2710 c1        1 7IG      0.071000
     20 C15        -7.4320   -0.6720    3.7970 c2        1 7IG     -0.005000
     21 C16       -11.2710    0.6080   -0.4450 c2        1 7IG     -0.207000
     22 C17       -10.4510    1.3550    0.3040 c2        1 7IG     -0.065000
     23 C18       -10.8350    0.1730    4.5840 c1        1 7IG      0.779000
     24 C19        -6.7750   -0.3410    2.5100 c2        1 7IG     -0.002000
     25 F2         -9.6040    0.8190    1.2290 f         1 7IG     -0.198000
     26 HN31       -1.8860   -2.2840    0.7110 ha        1 7IG      0.200000
     27 HN32       -0.5730    1.0480   -2.0140 hn        1 7IG      0.260500
     28 HN41        3.7520    0.7600   -0.5380 hn        1 7IG      0.294333
     29 HN42        3.9580    1.1640    1.0840 hn        1 7IG      0.294333
     30 H51         0.1700   -0.6260    3.1740 h4        1 7IG      0.213000
     31 H52        -0.6990    0.3060    5.2430 ha        1 7IG      0.127250
     32 H61        -2.5270    0.5720    5.1860 ha        1 7IG      0.127250
     33 H62        -2.8620   -1.8530    4.5970 ha        1 7IG      0.127250
     34 H63        -1.0330   -2.1190    4.6490 ha        1 7IG      0.127250
     35 H7         -4.3340   -2.5580    1.0880 hc        1 7IG      0.229500
     36 H8         -4.0510   -1.7600   -0.4790 hc        1 7IG      0.229500
     37 H10        -2.0330   -0.4340    2.6630 hc        1 7IG      0.262000
     38 H11        -2.3150    1.9640    1.3600 ha        1 7IG      0.191000
     39 HN5        -4.7730    1.8060    0.9680 ha        1 7IG      0.189000
     40 H14        -7.0080   -1.5300    4.3850 ha        1 7IG      0.251000
     41 H16       -11.9420    1.0800   -1.1770 ha        1 7IG      0.153500
     42 H18       -10.3800    2.4550    0.2510 h4        1 7IG      0.165000
     43 H191      -11.3290   -0.4860   -0.3790 ha        1 7IG      0.153500
     44 H192       -7.4250    0.2130    1.7890 h4        1 7IG      0.176000
     45 H33        -1.8700    0.9580   -0.9200 hn        1 7IG      0.260500
     46 H43         4.0580   -0.4420    0.6020 hn        1 7IG      0.294333
     47 H521       -5.6600   -0.3150    0.1910 h1        1 7IG      0.142000
     48 F1         -9.2830    1.6370    5.7050 f         1 7IG     -0.009000
@<TRIPOS>BOND
     1    1    2 1   
     2    1    6 1   
     3    1    7 1   
     4    2    3 1   
     5    3    4 1   
     6    3    8 1   
     7    4    5 1   
     8    5    6 1   
     9    5   30 1   
    10    6   13 1   
    11    7   27 1   
    12    7   45 1   
    13    8   28 1   
    14    8   29 1   
    15    8   46 1   
    16    9   10 1   
    17    9   31 1   
    18    9   32 1   
    19   10   33 1   
    20   10   34 1   
    21   11   12 1   
    22   11   16 1   
    23   11   35 1   
    24   11   36 1   
    25   12   13 1   
    26   12   26 1   
    27   13   14 1   
    28   13   37 1   
    29   14   15 1   
    30   14   38 1   
    31   15   16 1   
    32   15   39 1   
    33   16   17 1   
    34   16   47 1   
    35   17   24 1   
    36   18   19 1   
    37   18   23 1   
    38   18   48 1   
    39   19   20 1   
    40   20   24 1   
    41   20   40 1   
    42   21   22 1   
    43   21   41 1   
    44   21   43 1   
    45   22   25 1   
    46   22   42 1   
    47   24   44 1   
@<TRIPOS>SUBSTRUCTURE
     1 7IG         1 TEMP              0 ****  ****    0 ROOT
