@<TRIPOS>MOLECULE
7IN
   64    70     1     0     0
SMALL
bcc


@<TRIPOS>ATOM
      1 O2        -27.1910  709.2700 -447.5910 oh        1 7IN     -0.383000
      2 C3        -26.1930  709.6690 -448.5060 c3        1 7IN     -0.041000
      3 C4        -26.9230  710.1310 -449.7960 c3        1 7IN     -0.104000
      4 N5        -27.1600  711.6060 -449.8380 n4        1 7IN     -0.122000
      5 C6        -27.0940  712.2360 -451.2380 c2        1 7IN      0.270000
      6 C7        -27.1150  713.7890 -451.2640 c3        1 7IN      0.006000
      7 N8        -26.2590  714.3140 -450.2500 n3        1 7IN     -0.405000
      8 S9         86.6750-1956.4810    0.3550 s         1 7IN      0.361000
      9 C10        87.6890-1957.6880    0.9840 c2        1 7IN     -0.164000
     10 C11        86.8710-1958.9410    0.9780 c2        1 7IN     -0.117000
     11 C12        86.7670-1959.7140    0.1440 DU        1 7IN      0.060000
     12 C13        86.0420-1960.9030    0.1220 DU        1 7IN     -0.215000
     13 C14        85.4400-1961.3360    0.9380 c2        1 7IN      0.178000
     14 C15        85.5660-1960.5800    0.7700 DU        1 7IN     -0.083000
     15 C16        86.2890-1959.3890    0.7820 DU        1 7IN     -0.142000
     16 O17        86.5110-1956.1630    0.6510 os        1 7IN     -0.180500
     17 O18        86.0460-1955.8470    0.3500 os        1 7IN     -0.180500
     18 C19       -28.6050  714.1960 -451.1710 c3        1 7IN     -0.046000
     19 O20       -29.1140  713.6390 -449.9690 oh        1 7IN     -0.403000
     20 O21       -27.0690  711.4590 -452.1710 o         1 7IN     -0.187000
     21 C22       -28.2400  709.3560 -449.9670 c2        1 7IN      0.255000
     22 O23       -29.3280  709.8570 -450.1950 o         1 7IN     -0.133000
     23 N24       -28.1570  707.8640 -449.8260 n4        1 7IN     -0.096000
     24 C25       -29.3740  707.1600 -450.3750 c3        1 7IN     -0.078000
     25 C26       -29.3280  705.6810 -450.1720 ca        1 7IN     -0.141000
     26 C27       -28.8900  704.8460 -451.2070 ca        1 7IN     -0.086500
     27 C28       -28.9680  703.4580 -451.0700 ca        1 7IN     -0.081500
     28 C29       -29.4850  702.9030 -449.8940 ca        1 7IN     -0.117000
     29 C30       -29.9140  703.7330 -448.8520 ca        1 7IN     -0.081500
     30 C31       -29.8350  705.1200 -448.9930 ca        1 7IN     -0.086500
     31 C32       -29.5190  701.4260 -449.7240 c2        1 7IN      0.037000
     32 N33       -28.6660  700.6290 -449.2140 n2        1 7IN     -0.129000
     33 N34       -30.7820  700.8040 -450.2520 n4        1 7IN     -0.052000
     34 HO2       -26.8830  709.4420 -446.6860 ho        1 7IN      0.288000
     35 H31A      -25.5520  708.7790 -448.7640 h1        1 7IN      0.139000
     36 H32       -25.5280  710.4730 -448.0890 h1        1 7IN      0.139000
     37 H4        -26.2570  709.8790 -450.6870 hx        1 7IN      0.203000
     38 HN5       -28.0920  711.8500 -449.4500 hn        1 7IN      0.295000
     39 H7        -26.7470  714.0390 -452.3120 h1        1 7IN      0.184000
     40 HN8       -25.4540  714.7850 -450.6130 hn        1 7IN      0.220500
     41 H101       88.2100-1957.6060    0.9780 ha        1 7IN      0.171000
     42 H102       88.5580-1957.8420    0.7000 DU        1 7IN      0.171000
     43 H12        87.2630-1959.3950    0.0750 DU        1 7IN      0.190000
     44 H13        85.9550-1961.5080    0.0400 DU        1 7IN      0.175000
     45 H14        84.8730-1962.2830    0.9230 ha        1 7IN      0.286000
     46 H15        85.1040-1960.9290    0.8320 DU        1 7IN      0.295000
     47 H16        86.4080-1958.8140    0.8500 DU        1 7IN      0.195000
     48 H191      -28.6880  715.3170 -451.1710 h1        1 7IN      0.134500
     49 H192      -29.1710  713.7760 -452.0470 h1        1 7IN      0.134500
     50 H20       -29.9040  714.1390 -449.7170 ho        1 7IN      0.272000
     51 H24       -27.3150  707.5160 -450.2980 hn        1 7IN      0.275000
     52 H251      -30.2800  707.6010 -449.8580 hx        1 7IN      0.173500
     53 H252      -29.4390  707.4110 -451.4760 hx        1 7IN      0.173500
     54 H27       -28.5010  705.2690 -452.1480 ha        1 7IN      0.168500
     55 H28       -28.6160  702.8120 -451.8940 ha        1 7IN      0.179500
     56 H30       -30.3140  703.3050 -447.9160 ha        1 7IN      0.179500
     57 H31       -30.2010  705.7630 -448.1740 ha        1 7IN      0.168500
     58 H33       -27.8040  700.9750 -448.8440 hn        1 7IN      0.256000
     59 H341      -31.5840  701.1940 -449.7440 hn        1 7IN      0.277333
     60 H342      -30.8690  701.0240 -451.2510 hn        1 7IN      0.277333
     61 H52       -26.4480  712.0740 -449.2540 hn        1 7IN      0.295000
     62 H82       -26.7400  714.8690 -449.5700 hn        1 7IN      0.220500
     63 H242      -28.0670  707.6560 -448.8130 hn        1 7IN      0.275000
     64 H343      -30.7770  699.7770 -450.1340 hn        1 7IN      0.277333
@<TRIPOS>BOND
     1    1    2 1   
     2    1   34 1   
     3    2    3 1   
     4    2   35 1   
     5    2   36 1   
     6    3    4 1   
     7    3   21 1   
     8    3   37 1   
     9    4    5 1   
    10    4   38 1   
    11    4   61 1   
    12    5    6 1   
    13    5   20 1   
    14    6    7 1   
    15    6   18 1   
    16    6   39 1   
    17    7   40 1   
    18    7   62 1   
    19    8    9 1   
    20    9   10 1   
    21    9   42 1   
    22   10   11 1   
    23   10   43 1   
    24   11   12 1   
    25   11   14 1   
    26   11   15 1   
    27   11   43 1   
    28   11   47 1   
    29   12   13 1   
    30   12   14 1   
    31   12   15 1   
    32   12   44 1   
    33   12   46 1   
    34   13   44 1   
    35   13   45 1   
    36   14   15 1   
    37   14   44 1   
    38   14   46 1   
    39   15   43 1   
    40   15   47 1   
    41   18   19 1   
    42   18   48 1   
    43   18   49 1   
    44   19   50 1   
    45   21   22 1   
    46   21   23 1   
    47   23   24 1   
    48   23   51 1   
    49   23   63 1   
    50   24   25 1   
    51   24   52 1   
    52   24   53 1   
    53   25   26 1   
    54   25   30 1   
    55   26   27 1   
    56   26   54 1   
    57   27   28 1   
    58   27   55 1   
    59   28   29 1   
    60   28   31 1   
    61   29   30 1   
    62   29   56 1   
    63   30   57 1   
    64   31   32 1   
    65   31   33 1   
    66   32   58 1   
    67   33   59 1   
    68   33   60 1   
    69   33   64 1   
    70   41   42 1   
@<TRIPOS>SUBSTRUCTURE
     1 7IN         1 TEMP              0 ****  ****    0 ROOT
