@<TRIPOS>MOLECULE
7IN
   64    64     1     0     0
SMALL
bcc


@<TRIPOS>ATOM
      1 O2        -17.7890  557.4950 -338.9130 oh        1 7IN     -0.659800
      2 C3        -16.9780  556.4640 -338.3900 c3        1 7IN      0.106400
      3 C4        -17.0850  556.5610 -336.8490 c3        1 7IN      0.048500
      4 N5        -18.3170  555.8950 -336.3300 n4        1 7IN     -0.689800
      5 C6        -18.2210  554.3590 -336.2470 c         1 7IN      0.557100
      6 C7        -19.4620  553.6570 -335.6310 c3        1 7IN      0.151500
      7 N8        -20.6660  554.2680 -336.0920 n3        1 7IN     -0.971800
      8 S9         52.7850-1548.7590  942.0660 s4        1 7IN      1.580500
      9 C10        53.7240-1547.6790  942.8230 c3        1 7IN     -0.403800
     10 C11        53.6120-1546.4040  942.0480 ca        1 7IN     -0.214300
     11 C12        54.5330-1546.1230  941.0280 ca        1 7IN     -0.092000
     12 C13        54.4530-1544.9150  940.3380 ca        1 7IN     -0.113000
     13 C14        53.4750-1543.9770  940.6770 ca        1 7IN     -0.056000
     14 C15        52.5740-1544.2460  941.7100 ca        1 7IN     -0.113000
     15 C16        52.6460-1545.4510  942.4050 ca        1 7IN     -0.092000
     16 O17        53.3360-1549.5130  941.0990 o         1 7IN     -0.361400
     17 O18        51.4980-1548.8570  942.4420 o         1 7IN     -0.361400
     18 C19       -19.2310  553.6750 -334.1000 c3        1 7IN      0.103400
     19 O20       -19.0790  555.0340 -333.7200 oh        1 7IN     -0.677800
     20 O21       -17.1800  553.8660 -336.6280 o         1 7IN     -0.410100
     21 C22       -17.0170  558.0150 -336.3560 c         1 7IN      0.527100
     22 O23       -17.5960  558.4330 -335.3650 o         1 7IN     -0.376100
     23 N24       -16.1690  558.9720 -337.1390 n4        1 7IN     -0.662800
     24 C25       -15.9950  560.2990 -336.4420 c3        1 7IN      0.166100
     25 C26       -15.1330  561.2470 -337.2100 ca        1 7IN     -0.148300
     26 C27       -13.7630  561.3290 -336.9320 ca        1 7IN     -0.086500
     27 C28       -12.9770  562.3050 -337.5490 ca        1 7IN     -0.081500
     28 C29       -13.5630  563.2030 -338.4490 ca        1 7IN     -0.200900
     29 C30       -14.9300  563.1180 -338.7400 ca        1 7IN     -0.081500
     30 C31       -15.7120  562.1410 -338.1200 ca        1 7IN     -0.086500
     31 C32       -12.7180  564.2090 -339.1430 ce        1 7IN      0.560800
     32 N33       -12.0410  564.1240 -340.2200 n2        1 7IN     -0.660100
     33 N34       -12.6760  565.5320 -338.4310 n4        1 7IN     -0.818600
     34 HO2       -18.1020  557.2360 -339.7950 ho        1 7IN      0.487000
     35 H31A      -17.2930  555.4450 -338.7470 h1        1 7IN      0.101200
     36 H32       -15.9080  556.6280 -338.6960 h1        1 7IN      0.101200
     37 H4        -16.1890  556.0130 -336.4020 hx        1 7IN      0.173700
     38 HN5       -18.5380  556.2250 -335.3690 hn        1 7IN      0.496800
     39 H7        -19.3600  552.5820 -335.9900 h1        1 7IN      0.145700
     40 HN8       -21.2270  553.6630 -336.6590 hn        1 7IN      0.424300
     41 H101       53.4500-1547.4550  943.9030 h1        1 7IN      0.203700
     42 H102       54.8260-1547.9460  942.8980 h1        1 7IN      0.203700
     43 H12        55.3270-1546.8440  940.7740 ha        1 7IN      0.152000
     44 H13        55.1740-1544.6960  939.5330 ha        1 7IN      0.172000
     45 H14        53.4200-1543.0180  940.1340 ha        1 7IN      0.172000
     46 H15        51.8110-1543.4990  941.9870 ha        1 7IN      0.172000
     47 H16        51.9510-1545.6420  943.2390 ha        1 7IN      0.152000
     48 H191      -18.2930  553.1090 -333.8490 h1        1 7IN      0.097200
     49 H192      -20.1080  553.1990 -333.5840 h1        1 7IN      0.097200
     50 H20       -19.2850  555.1070 -332.7770 ho        1 7IN      0.473000
     51 H24       -16.6310  559.1200 -338.0570 hn        1 7IN      0.481800
     52 H251      -15.5480  560.0910 -335.4240 hx        1 7IN      0.133700
     53 H252      -17.0280  560.7370 -336.2890 hx        1 7IN      0.133700
     54 H27       -13.2920  560.6440 -336.2060 ha        1 7IN      0.168000
     55 H28       -11.8980  562.3560 -337.3200 ha        1 7IN      0.179500
     56 H30       -15.4000  563.8130 -339.4570 ha        1 7IN      0.179500
     57 H31       -16.7930  562.1010 -338.3410 ha        1 7IN      0.168000
     58 H33       -12.0240  563.2730 -340.7440 hn        1 7IN      0.500400
     59 H341      -12.2890  565.3930 -337.4910 hn        1 7IN      0.482467
     60 H342      -13.6310  565.9010 -338.3570 hn        1 7IN      0.482467
     61 H52       -19.1160  556.1300 -336.9380 hn        1 7IN      0.496800
     62 H82       -21.2000  554.6960 -335.3630 hn        1 7IN      0.424300
     63 H242      -15.2490  558.5510 -337.3130 hn        1 7IN      0.481800
     64 H343      -12.0900  566.2170 -338.9370 hn        1 7IN      0.482467
@<TRIPOS>BOND
     1    1    2 1   
     2    1   34 1   
     3    2    3 1   
     4    2   35 1   
     5    2   36 1   
     6    3    4 1   
     7    3   21 1   
     8    3   37 1   
     9    4    5 1   
    10    4   38 1   
    11    4   61 1   
    12    5    6 1   
    13    5   20 2   
    14    6    7 1   
    15    6   18 1   
    16    6   39 1   
    17    7   40 1   
    18    7   62 1   
    19    8    9 1   
    20    8   16 1   
    21    8   17 1   
    22    9   10 1   
    23    9   41 1   
    24    9   42 1   
    25   10   11 ar  
    26   10   15 ar  
    27   11   12 ar  
    28   11   43 1   
    29   12   13 ar  
    30   12   44 1   
    31   13   14 ar  
    32   13   45 1   
    33   14   15 ar  
    34   14   46 1   
    35   15   47 1   
    36   18   19 1   
    37   18   48 1   
    38   18   49 1   
    39   19   50 1   
    40   21   22 2   
    41   21   23 1   
    42   23   24 1   
    43   23   51 1   
    44   23   63 1   
    45   24   25 1   
    46   24   52 1   
    47   24   53 1   
    48   25   26 ar  
    49   25   30 ar  
    50   26   27 ar  
    51   26   54 1   
    52   27   28 ar  
    53   27   55 1   
    54   28   29 ar  
    55   28   31 1   
    56   29   30 ar  
    57   29   56 1   
    58   30   57 1   
    59   31   32 2   
    60   31   33 1   
    61   32   58 1   
    62   33   59 1   
    63   33   60 1   
    64   33   64 1   
@<TRIPOS>SUBSTRUCTURE
     1 7IN         1 TEMP              0 ****  ****    0 ROOT
