@<TRIPOS>MOLECULE
7IN
   60    55     1     0     0
SMALL
bcc


@<TRIPOS>ATOM
      1 O2         -0.7450   -0.2630   -4.4740 oh        1 7IN     -0.315000
      2 C3         -1.7940    0.0420   -3.5800 c3        1 7IN     -0.018000
      3 C4         -1.2760   -0.0290   -2.1460 c3        1 7IN     -0.042000
      4 N5         -1.7710   -1.2100   -1.5170 n         1 7IN     -0.355000
      5 C6         -0.8620   -2.2450   -1.1240 c2        1 7IN      0.281000
      6 C7         -1.3500   -3.3960   -0.2360 c3        1 7IN      0.029000
      7 N8         -0.2340   -4.0140    0.3950 n3        1 7IN     -0.882000
      8 S9         -0.1860   -4.1510    2.0450 s4        1 7IN      2.020800
      9 C10         1.0940   -5.3360    2.5380 c2        1 7IN     -0.809000
     10 C11         1.4960   -5.0870    3.9970 c2        1 7IN     -0.068000
     11 C12         2.5210   -4.2030    4.2870 c2        1 7IN     -0.104000
     12 C13         2.9520   -4.0520    5.5820 c1        1 7IN     -0.129000
     13 C14         2.3610   -4.7860    6.6010 c1        1 7IN     -0.122000
     14 C15         1.3460   -5.6620    6.3150 c1        1 7IN     -0.122000
     15 C16         0.9100   -5.8140    5.0060 c1        1 7IN     -0.125000
     16 O17         0.0140   -2.8640    2.6740 o         1 7IN     -0.529900
     17 O18        -1.4870   -4.5280    2.5830 o         1 7IN     -0.529900
     18 C19        -2.0700   -4.4030   -1.0760 c3        1 7IN     -0.036000
     19 O20        -1.1640   -5.0230   -1.9400 oh        1 7IN     -0.350000
     20 O21         0.2980   -2.1940   -1.4670 o         1 7IN     -0.390000
     21 C22        -1.7460    1.1980   -1.3760 c2        1 7IN      0.276000
     22 O23        -2.7170    1.1140   -0.6040 o         1 7IN     -0.367000
     23 N24        -1.0590    2.4880   -1.5550 n         1 7IN     -0.363000
     24 C25        -1.4740    3.6320   -0.7870 c3        1 7IN      0.000000
     25 C26        -0.6260    4.8280   -1.1650 c2        1 7IN     -0.101000
     26 C27        -1.0890    5.7380   -2.1060 c2        1 7IN     -0.111000
     27 C28        -0.3100    6.8200   -2.4600 c1        1 7IN     -0.105000
     28 C29         0.9440    6.9990   -1.8720 c1        1 7IN     -0.099000
     29 C30         1.4030    6.0940   -0.9360 c1        1 7IN     -0.114000
     30 C31         0.6190    5.0060   -0.5810 c1        1 7IN     -0.122000
     31 C32         1.7780    8.2110   -2.2230 c2        1 7IN      0.117000
     32 N33         1.4950    9.4140   -1.6680 n1        1 7IN     -0.303000
     33 N34         2.8770    8.0850   -3.1510 n3        1 7IN     -0.334000
     34 HO2        -1.0620   -0.2870   -5.3070 ho        1 7IN      0.199000
     35 H31A       -2.5230   -0.6040   -3.6960 h1        1 7IN      0.112000
     36 H32        -2.1270    0.9430   -3.7620 h1        1 7IN      0.112000
     37 H4         -0.2960   -0.0530   -2.1550 h1        1 7IN      0.144000
     38 HN5        -2.6680   -1.2890   -1.3240 hn        1 7IN      0.252000
     39 H7         -1.9520   -3.0510    0.4380 h1        1 7IN      0.151000
     40 HN8         0.4370   -4.3700   -0.1110 hn        1 7IN      0.258000
     41 H101        1.8850   -5.2270    1.9580 ha        1 7IN      0.163500
     42 H102        0.7520   -6.2310    2.4480 ha        1 7IN      0.163500
     43 H12         2.9320   -3.6940    3.5810 ha        1 7IN      0.137000
     44 H13         3.6850   -3.4190    5.7880 ha        1 7IN      0.134000
     45 H14         2.6700   -4.6780    7.5290 ha        1 7IN      0.135000
     46 H15         0.9280   -6.1800    7.0360 ha        1 7IN      0.135000
     47 H16         0.1800   -6.4460    4.7990 ha        1 7IN      0.151000
     48 H191       -2.7550   -3.9590   -1.5920 h1        1 7IN      0.091000
     49 H192       -2.4840   -5.0800   -0.4940 h1        1 7IN      0.091000
     50 H20        -1.4470   -5.8220   -2.1300 ho        1 7IN      0.223000
     51 H24        -0.3970    2.5760   -2.1990 hn        1 7IN      0.244000
     52 H251       -2.4250    3.8300   -0.9760 h1        1 7IN      0.110500
     53 H252       -1.3630    3.4410    0.1700 h1        1 7IN      0.110500
     54 H27        -1.9860    5.6110   -2.5250 ha        1 7IN      0.145000
     55 H28        -0.6340    7.4590   -3.1210 ha        1 7IN      0.146000
     56 H30         2.2910    6.2220   -0.5200 ha        1 7IN      0.134000
     57 H31         0.9450    4.3640    0.0810 ha        1 7IN      0.138000
     58 H33         0.7680    9.4980   -1.0530 DU        1 7IN      0.150000
     59 H341        3.4180    8.7950   -3.3130 hn        1 7IN      0.196500
     60 H342        3.0770    7.2460   -3.5300 hn        1 7IN      0.196500
@<TRIPOS>BOND
     1    1    2 1   
     2    1   34 1   
     3    2    3 1   
     4    2   35 1   
     5    2   36 1   
     6    3    4 1   
     7    3   21 1   
     8    3   37 1   
     9    4    5 1   
    10    4   38 1   
    11    5    6 1   
    12    5   20 1   
    13    6    7 1   
    14    6   18 1   
    15    6   39 1   
    16    7    8 1   
    17    7   40 1   
    18    8   16 1   
    19    8   17 1   
    20    9   10 1   
    21    9   41 1   
    22    9   42 1   
    23   10   11 1   
    24   10   15 1   
    25   11   12 1   
    26   11   43 1   
    27   12   44 1   
    28   13   14 1   
    29   13   45 1   
    30   14   46 1   
    31   15   47 1   
    32   18   19 1   
    33   18   48 1   
    34   18   49 1   
    35   19   50 1   
    36   21   22 1   
    37   21   23 1   
    38   23   24 1   
    39   23   51 1   
    40   24   25 1   
    41   24   52 1   
    42   24   53 1   
    43   25   26 1   
    44   25   30 1   
    45   26   27 1   
    46   26   54 1   
    47   27   55 1   
    48   28   29 1   
    49   28   31 1   
    50   29   56 1   
    51   30   57 1   
    52   31   32 1   
    53   31   33 1   
    54   33   59 1   
    55   33   60 1   
@<TRIPOS>SUBSTRUCTURE
     1 7IN         1 TEMP              0 ****  ****    0 ROOT
