@<TRIPOS>MOLECULE
7IN
   64    64     1     0     0
SMALL
bcc


@<TRIPOS>ATOM
      1 O2          1.6220  486.2440 -297.2380 oh        1 7IN     -0.659800
      2 C3          2.2810  485.8520 -298.4240 c3        1 7IN      0.106400
      3 C4          1.2330  485.1040 -299.2830 c3        1 7IN      0.048500
      4 N5          0.3580  486.0460 -300.0440 ny        1 7IN     -0.689800
      5 C6          1.0060  486.6250 -301.3160 c         1 7IN      0.557100
      6 C7          0.0820  487.5420 -302.1630 c3        1 7IN      0.151500
      7 N8         -0.6960  488.3890 -301.3180 n8        1 7IN     -0.971800
      8 S9          7.7720-1337.0390  832.5060 s4        1 7IN      1.580500
      9 C10         6.2170-1336.8660  832.0880 c3        1 7IN     -0.403800
     10 C11         5.6080-1338.2310  832.1530 ca        1 7IN     -0.214300
     11 C12         5.5730-1339.0360  831.0040 ca        1 7IN     -0.092000
     12 C13         4.9650-1340.2880  831.0560 ca        1 7IN     -0.113000
     13 C14         4.3710-1340.7310  832.2410 ca        1 7IN     -0.056000
     14 C15         4.3830-1339.9180  833.3770 ca        1 7IN     -0.113000
     15 C16         4.9890-1338.6650  833.3350 ca        1 7IN     -0.092000
     16 O17         8.6680-1337.2860  831.5340 o         1 7IN     -0.361400
     17 O18         8.0990-1336.9220  833.8040 o         1 7IN     -0.361400
     18 C19        -0.7120  486.5890 -303.0900 c3        1 7IN      0.103400
     19 O20        -1.4060  485.6780 -302.2520 oh        1 7IN     -0.677800
     20 O21         2.1460  486.2760 -301.5450 o         1 7IN     -0.410100
     21 C22         0.3770  484.1420 -298.4430 c         1 7IN      0.527100
     22 O23        -0.7890  483.8700 -298.6840 o         1 7IN     -0.376100
     23 N24         1.0290  483.4870 -297.2630 ny        1 7IN     -0.662800
     24 C25         0.1810  482.3940 -296.6610 c3        1 7IN      0.166100
     25 C26         0.8270  481.7440 -295.4820 ca        1 7IN     -0.148300
     26 C27         1.5230  480.5380 -295.6430 ca        1 7IN     -0.086500
     27 C28         2.0160  479.8580 -294.5270 ca        1 7IN     -0.081500
     28 C29         1.8150  480.3850 -293.2470 ca        1 7IN     -0.200900
     29 C30         1.1310  481.5940 -293.0810 ca        1 7IN     -0.081500
     30 C31         0.6370  482.2710 -294.1980 ca        1 7IN     -0.086500
     31 C32         2.3850  479.6920 -292.0610 ce        1 7IN      0.560800
     32 N33         3.4930  479.8620 -291.4530 n2        1 7IN     -0.660100
     33 N34         1.4810  478.6220 -291.5160 nz        1 7IN     -0.818600
     34 HO2         2.0510  487.0410 -296.8860 ho        1 7IN      0.487000
     35 H31A        3.1240  485.1490 -298.1770 h1        1 7IN      0.101200
     36 H32         2.7080  486.7260 -298.9890 h1        1 7IN      0.101200
     37 H4          1.7970  484.4710 -300.0480 hx        1 7IN      0.173700
     38 HN5         0.0940  486.8350 -299.4360 hn        1 7IN      0.496800
     39 H7          0.8130  488.1300 -302.8070 h1        1 7IN      0.145700
     40 HN8        -1.6800  488.2210 -301.3830 hn        1 7IN      0.424800
     41 H101        6.0270-1336.4480  831.0490 h1        1 7IN      0.203700
     42 H102        5.6010-1336.1770  832.7490 h1        1 7IN      0.203700
     43 H12         6.0120-1338.6820  830.0570 ha        1 7IN      0.152000
     44 H13         4.9420-1340.9230  830.1550 ha        1 7IN      0.172000
     45 H14         3.8830-1341.7200  832.2760 ha        1 7IN      0.172000
     46 H15         3.9010-1340.2620  834.3080 ha        1 7IN      0.172000
     47 H16         4.9670-1338.0180  834.2270 ha        1 7IN      0.152000
     48 H191       -1.4210  487.1880 -303.7230 h1        1 7IN      0.097200
     49 H192       -0.0030  486.0230 -303.7520 h1        1 7IN      0.097200
     50 H20        -2.1550  485.3200 -302.7520 ho        1 7IN      0.473000
     51 H24         1.9390  483.1020 -297.5450 hn        1 7IN      0.481800
     52 H251       -0.0210  481.6360 -297.4760 hx        1 7IN      0.133700
     53 H252       -0.8070  482.8600 -296.3630 hx        1 7IN      0.133700
     54 H27         1.6690  480.1000 -296.6450 ha        1 7IN      0.168000
     55 H28         2.5650  478.9110 -294.6710 ha        1 7IN      0.179500
     56 H30         0.9750  482.0230 -292.0750 ha        1 7IN      0.179500
     57 H31         0.0770  483.2100 -294.0520 ha        1 7IN      0.168000
     58 H33         4.1420  480.5550 -291.7640 hn        1 7IN      0.500400
     59 H341        1.9020  478.1510 -290.6960 hn        1 7IN      0.482467
     60 H342        1.3100  477.9250 -292.2490 hn        1 7IN      0.482467
     61 H52        -0.5140  485.5720 -300.3510 hn        1 7IN      0.496800
     62 H82        -0.4770  489.3610 -301.4200 hn        1 7IN      0.424800
     63 H242        1.2010  484.2230 -296.5520 hn        1 7IN      0.481800
     64 H343        0.5910  479.0480 -291.2340 hn        1 7IN      0.482467
@<TRIPOS>BOND
     1    1    2 1   
     2    1   34 1   
     3    2    3 1   
     4    2   35 1   
     5    2   36 1   
     6    3    4 1   
     7    3   21 1   
     8    3   37 1   
     9    4    5 1   
    10    4   38 1   
    11    4   61 1   
    12    5    6 1   
    13    5   20 2   
    14    6    7 1   
    15    6   18 1   
    16    6   39 1   
    17    7   40 1   
    18    7   62 1   
    19    8    9 1   
    20    8   16 1   
    21    8   17 1   
    22    9   10 1   
    23    9   41 1   
    24    9   42 1   
    25   10   11 ar  
    26   10   15 ar  
    27   11   12 ar  
    28   11   43 1   
    29   12   13 ar  
    30   12   44 1   
    31   13   14 ar  
    32   13   45 1   
    33   14   15 ar  
    34   14   46 1   
    35   15   47 1   
    36   18   19 1   
    37   18   48 1   
    38   18   49 1   
    39   19   50 1   
    40   21   22 2   
    41   21   23 1   
    42   23   24 1   
    43   23   51 1   
    44   23   63 1   
    45   24   25 1   
    46   24   52 1   
    47   24   53 1   
    48   25   26 ar  
    49   25   30 ar  
    50   26   27 ar  
    51   26   54 1   
    52   27   28 ar  
    53   27   55 1   
    54   28   29 ar  
    55   28   31 1   
    56   29   30 ar  
    57   29   56 1   
    58   30   57 1   
    59   31   32 2   
    60   31   33 1   
    61   32   58 1   
    62   33   59 1   
    63   33   60 1   
    64   33   64 1   
@<TRIPOS>SUBSTRUCTURE
     1 7IN         1 TEMP              0 ****  ****    0 ROOT
