@<TRIPOS>MOLECULE
7IN
   60    61     1     0     0
SMALL
bcc


@<TRIPOS>ATOM
      1 O2         -1.6070    0.6320    2.3460 oh        1 7IN     -0.600800
      2 C3         -0.7400    1.6750    1.9420 c3        1 7IN      0.102400
      3 C4          0.5510    1.0430    1.3740 c3        1 7IN      0.042700
      4 N5          0.3580    0.3090    0.1500 n         1 7IN     -0.551900
      5 C6          0.0600    0.9580   -1.0300 c         1 7IN      0.660100
      6 C7         -0.2140    0.0500   -2.2560 c3        1 7IN      0.182500
      7 N8         -0.1160    0.7790   -3.4850 n3        1 7IN     -0.910100
      8 S9          0.6940    0.2930   -4.8000 s6        1 7IN      1.452900
      9 C10        -0.5900   -0.3570   -5.7740 c3        1 7IN     -0.248300
     10 C11        -0.1180   -0.8940   -7.0730 ca        1 7IN     -0.074300
     11 C12        -0.4960   -0.2790   -8.2730 ca        1 7IN     -0.114500
     12 C13        -0.0740   -0.8060   -9.4930 ca        1 7IN     -0.127000
     13 C14         0.7230   -1.9500   -9.5250 ca        1 7IN     -0.121000
     14 C15         1.1020   -2.5650   -8.3320 ca        1 7IN     -0.127000
     15 C16         0.6840   -2.0430   -7.1100 ca        1 7IN     -0.114500
     16 O17         1.2380    1.4110   -5.4530 o         1 7IN     -0.642800
     17 O18         1.5590   -0.7670   -4.4510 o         1 7IN     -0.642800
     18 C19        -1.5860   -0.6380   -2.0530 c3        1 7IN      0.111400
     19 O20        -2.5750    0.3670   -1.9490 oh        1 7IN     -0.592800
     20 O21         0.0500    2.2010   -1.1040 o         1 7IN     -0.598100
     21 C22         1.1930    0.1440    2.4580 c         1 7IN      0.659100
     22 O23         1.2040   -1.0980    2.3680 o         1 7IN     -0.600100
     23 N24         1.8100    0.8060    3.5050 n         1 7IN     -0.549900
     24 C25         2.3380    0.0950    4.6400 c3        1 7IN      0.126300
     25 C26         1.3800   -0.0720    5.7860 ca        1 7IN     -0.115300
     26 C27         1.6140    0.5680    7.0060 ca        1 7IN     -0.120000
     27 C28         0.7390    0.3810    8.0760 ca        1 7IN     -0.108500
     28 C29        -0.3790   -0.4430    7.9260 ca        1 7IN     -0.193900
     29 C30        -0.6180   -1.0820    6.7040 ca        1 7IN     -0.108500
     30 C31         0.2600   -0.8990    5.6400 ca        1 7IN     -0.120000
     31 C32        -1.3460   -0.6340    9.0550 ce        1 7IN      0.638800
     32 N33        -2.6330   -0.4800    8.9450 n2        1 7IN     -0.834100
     33 N34        -0.7410   -0.9370   10.2940 nh        1 7IN     -0.892800
     34 HO2        -2.4680    1.0360    2.5110 ho        1 7IN      0.409000
     35 H31A       -0.4830    2.3190    2.8260 h1        1 7IN      0.046200
     36 H32        -1.2190    2.3120    1.1490 h1        1 7IN      0.046200
     37 H4          1.2500    1.9070    1.1390 h1        1 7IN      0.096700
     38 HN5         0.2180   -0.6730    0.2390 hn        1 7IN      0.336500
     39 H7          0.5660   -0.7760   -2.2730 h1        1 7IN      0.102700
     40 HN8        -0.5410    1.6800   -3.4270 hn        1 7IN      0.475800
     41 H101       -1.3750    0.4240   -5.9660 h1        1 7IN      0.109700
     42 H102       -1.1190   -1.1860   -5.2300 h1        1 7IN      0.109700
     43 H12        -1.1220    0.6250   -8.2550 ha        1 7IN      0.142500
     44 H13        -0.3700   -0.3140  -10.4310 ha        1 7IN      0.135000
     45 H14         1.0550   -2.3630  -10.4880 ha        1 7IN      0.133000
     46 H15         1.7360   -3.4640   -8.3520 ha        1 7IN      0.135000
     47 H16         1.0000   -2.5190   -6.1670 ha        1 7IN      0.142500
     48 H191       -1.5560   -1.2590   -1.1180 h1        1 7IN      0.035200
     49 H192       -1.8100   -1.3090   -2.9260 h1        1 7IN      0.035200
     50 H20        -3.4130   -0.0840   -1.7850 ho        1 7IN      0.409000
     51 H24         1.5870    1.7640    3.6470 hn        1 7IN      0.306500
     52 H251        2.6650   -0.9310    4.2960 h1        1 7IN      0.074200
     53 H252        3.2510    0.6590    4.9920 h1        1 7IN      0.074200
     54 H27         2.4920    1.2200    7.1290 ha        1 7IN      0.148000
     55 H28         0.9270    0.8890    9.0350 ha        1 7IN      0.145500
     56 H30        -1.4970   -1.7340    6.5830 ha        1 7IN      0.145500
     57 H31         0.0820   -1.4020    4.6740 ha        1 7IN      0.148000
     58 H33        -2.9310   -0.1700    8.0460 hn        1 7IN      0.393400
     59 H341       -1.3670   -1.2270   11.0150 hn        1 7IN      0.398800
     60 H342        0.0600   -1.5210   10.2060 hn        1 7IN      0.398800
@<TRIPOS>BOND
     1    1    2 1   
     2    1   34 1   
     3    2    3 1   
     4    2   35 1   
     5    2   36 1   
     6    3    4 1   
     7    3   21 1   
     8    3   37 1   
     9    4    5 1   
    10    4   38 1   
    11    5    6 1   
    12    5   20 2   
    13    6    7 1   
    14    6   18 1   
    15    6   39 1   
    16    7    8 1   
    17    7   40 1   
    18    8    9 1   
    19    8   16 2   
    20    8   17 2   
    21    9   10 1   
    22    9   41 1   
    23    9   42 1   
    24   10   11 ar  
    25   10   15 ar  
    26   11   12 ar  
    27   11   43 1   
    28   12   13 ar  
    29   12   44 1   
    30   13   14 ar  
    31   13   45 1   
    32   14   15 ar  
    33   14   46 1   
    34   15   47 1   
    35   18   19 1   
    36   18   48 1   
    37   18   49 1   
    38   19   50 1   
    39   21   22 2   
    40   21   23 1   
    41   23   24 1   
    42   23   51 1   
    43   24   25 1   
    44   24   52 1   
    45   24   53 1   
    46   25   26 ar  
    47   25   30 ar  
    48   26   27 ar  
    49   26   54 1   
    50   27   28 ar  
    51   27   55 1   
    52   28   29 ar  
    53   28   31 1   
    54   29   30 ar  
    55   29   56 1   
    56   30   57 1   
    57   31   32 2   
    58   31   33 1   
    59   32   58 1   
    60   33   59 1   
    61   33   60 1   
@<TRIPOS>SUBSTRUCTURE
     1 7IN         1 TEMP              0 ****  ****    0 ROOT
