@<TRIPOS>MOLECULE
7IP
   43    45     1     0     0
SMALL
bcc


@<TRIPOS>ATOM
      1 C1          0.8230   -0.0030   -0.3630 c3        1 7IP      0.113700
      2 O2          2.2070   -0.2280   -0.1270 os        1 7IP     -0.328900
      3 C3          2.5980   -0.2930    1.1970 ca        1 7IP      0.121100
      4 C4          3.9740   -0.5160    1.3930 ca        1 7IP     -0.154000
      5 C5          4.4630   -0.5940    2.6910 ca        1 7IP     -0.101000
      6 C6          3.6090   -0.4520    3.7850 ca        1 7IP     -0.154000
      7 C7          2.2400   -0.2320    3.5880 cp        1 7IP     -0.001000
      8 C8          1.7300   -0.1520    2.2840 ca        1 7IP     -0.194000
      9 C9          1.3420   -0.0850    4.7340 cp        1 7IP     -0.041000
     10 C10         1.7390    0.6580    5.8540 ca        1 7IP     -0.118000
     11 C11         0.8800    0.7950    6.9420 ca        1 7IP     -0.129000
     12 C12        -0.3760    0.1930    6.9270 ca        1 7IP     -0.118000
     13 C13        -0.7860   -0.5520    5.8140 ca        1 7IP     -0.075300
     14 C14        -2.1180   -1.2190    5.8070 c3        1 7IP     -0.033100
     15 C15        -3.2820   -0.2440    5.8530 c3        1 7IP     -0.130700
     16 C16        -3.5290    0.4160    4.5230 ca        1 7IP      0.455600
     17 C17        -3.9950   -0.3840    3.4570 ca        1 7IP     -0.297300
     18 C18        -4.2300    0.2180    2.2230 ca        1 7IP     -0.060000
     19 C19        -4.0090    1.5810    2.0690 ca        1 7IP     -0.304300
     20 C20        -3.5550    2.3330    3.1950 ca        1 7IP      0.631200
     21 N21        -3.4310    3.7270    3.0830 nh        1 7IP     -0.923500
     22 N22        -3.3040    1.7410    4.4080 nb        1 7IP     -0.718000
     23 C23         0.0770   -0.6870    4.7230 ca        1 7IP     -0.111000
     24 H11A        0.2090   -0.8340    0.0640 h1        1 7IP      0.043367
     25 H12A        0.5030    0.9780    0.0650 h1        1 7IP      0.043367
     26 H13         0.7470    0.0090   -1.4800 h1        1 7IP      0.043367
     27 H4          4.6350   -0.6250    0.5230 ha        1 7IP      0.149000
     28 H5          5.5370   -0.7700    2.8580 ha        1 7IP      0.134000
     29 H6          4.0100   -0.5220    4.8070 ha        1 7IP      0.137000
     30 H8          0.6570    0.0290    2.1340 ha        1 7IP      0.142000
     31 H10         2.7290    1.1390    5.8690 ha        1 7IP      0.135000
     32 H11         1.1950    1.3830    7.8170 ha        1 7IP      0.132000
     33 H12        -1.0510    0.3050    7.7880 ha        1 7IP      0.132000
     34 H141       -2.2150   -1.8740    4.8990 hc        1 7IP      0.050700
     35 H142       -2.1850   -1.8870    6.7090 hc        1 7IP      0.050700
     36 H151       -4.2150   -0.8070    6.1270 hc        1 7IP      0.062200
     37 H152       -3.0980    0.5190    6.6560 hc        1 7IP      0.062200
     38 H17        -4.1680   -1.4570    3.6070 ha        1 7IP      0.141000
     39 H18        -4.5920   -0.3800    1.3730 ha        1 7IP      0.134000
     40 H19        -4.1960    2.0740    1.1060 ha        1 7IP      0.140000
     41 H211       -3.1590    4.0300    2.1750 hn        1 7IP      0.402300
     42 H212       -2.9430    4.1810    3.8230 hn        1 7IP      0.402300
     43 H23        -0.2350   -1.2760    3.8470 ha        1 7IP      0.134000
@<TRIPOS>BOND
     1    1    2 1   
     2    1   24 1   
     3    1   25 1   
     4    1   26 1   
     5    2    3 1   
     6    3    4 ar  
     7    3    8 ar  
     8    4    5 ar  
     9    4   27 1   
    10    5    6 ar  
    11    5   28 1   
    12    6    7 ar  
    13    6   29 1   
    14    7    8 ar  
    15    7    9 1   
    16    8   30 1   
    17    9   10 ar  
    18    9   23 ar  
    19   10   11 ar  
    20   10   31 1   
    21   11   12 ar  
    22   11   32 1   
    23   12   13 ar  
    24   12   33 1   
    25   13   14 1   
    26   13   23 ar  
    27   14   15 1   
    28   14   34 1   
    29   14   35 1   
    30   15   16 1   
    31   15   36 1   
    32   15   37 1   
    33   16   17 ar  
    34   16   22 ar  
    35   17   18 ar  
    36   17   38 1   
    37   18   19 ar  
    38   18   39 1   
    39   19   20 ar  
    40   19   40 1   
    41   20   21 1   
    42   20   22 ar  
    43   21   41 1   
    44   21   42 1   
    45   23   43 1   
@<TRIPOS>SUBSTRUCTURE
     1 7IP         1 TEMP              0 ****  ****    0 ROOT
