@<TRIPOS>MOLECULE
7IP
   44    46     1     0     0
SMALL
bcc


@<TRIPOS>ATOM
      1 C1          1.2620    0.4750   -0.8860 c3        1 7IP      0.119700
      2 O2          0.7510    0.6980    0.4300 os        1 7IP     -0.417900
      3 C3          1.6060    0.3500    1.4700 ca        1 7IP      0.097100
      4 C4          2.9990    0.3160    1.3600 ca        1 7IP     -0.174000
      5 C5          3.7500    0.0310    2.5020 ca        1 7IP     -0.079000
      6 C6          3.1330   -0.1750    3.7350 ca        1 7IP     -0.133000
      7 C7          1.7360   -0.1250    3.8480 cp        1 7IP      0.020000
      8 C8          0.9720    0.0900    2.6920 ca        1 7IP     -0.204000
      9 C9          1.0530   -0.2080    5.1380 cp        1 7IP     -0.056000
     10 C10         1.6790    0.2360    6.3110 ca        1 7IP     -0.103000
     11 C11         0.9670    0.2920    7.5080 ca        1 7IP     -0.121000
     12 C12        -0.3830   -0.0530    7.5440 ca        1 7IP     -0.105000
     13 C13        -1.0200   -0.5040    6.3820 ca        1 7IP     -0.090300
     14 C14        -2.4760   -0.8120    6.3830 c3        1 7IP     -0.032100
     15 C15        -3.3190    0.3850    5.9580 c3        1 7IP     -0.139700
     16 C16        -3.3590    0.5570    4.4640 ca        1 7IP      0.460600
     17 C17        -4.4170   -0.0520    3.7340 ca        1 7IP     -0.193300
     18 C18        -4.4620    0.0830    2.3520 ca        1 7IP     -0.069000
     19 C19        -3.4580    0.8050    1.6930 ca        1 7IP     -0.207300
     20 C20        -2.4490    1.3720    2.4940 ca        1 7IP      0.448200
     21 N21        -1.3500    2.1190    1.8420 n4        1 7IP     -0.824300
     22 N22        -2.3940    1.2750    3.8530 nb        1 7IP     -0.647000
     23 C23        -0.2830   -0.6320    5.2020 ca        1 7IP     -0.109000
     24 H11A        2.0220    1.2570   -1.1310 h1        1 7IP      0.056367
     25 H12A        0.3630    0.5750   -1.5440 h1        1 7IP      0.056367
     26 H13         1.7050   -0.5460   -0.9720 h1        1 7IP      0.056367
     27 H4          3.4990    0.5010    0.3990 ha        1 7IP      0.152000
     28 H5          4.8480   -0.0230    2.4260 ha        1 7IP      0.154000
     29 H6          3.7490   -0.3880    4.6230 ha        1 7IP      0.155000
     30 H8         -0.1210    0.0060    2.7300 ha        1 7IP      0.123000
     31 H10         2.7320    0.5560    6.2900 ha        1 7IP      0.143000
     32 H11         1.4710    0.6260    8.4280 ha        1 7IP      0.148000
     33 H12        -0.9470    0.0280    8.4860 ha        1 7IP      0.143000
     34 H141       -2.6870   -1.6850    5.7100 hc        1 7IP      0.065200
     35 H142       -2.7960   -1.1080    7.4200 hc        1 7IP      0.065200
     36 H151       -4.3740    0.2340    6.3160 hc        1 7IP      0.080700
     37 H152       -2.9240    1.3140    6.4510 hc        1 7IP      0.080700
     38 H17        -5.1890   -0.6260    4.2720 ha        1 7IP      0.180000
     39 H18        -5.2770   -0.3760    1.7660 ha        1 7IP      0.178000
     40 H19        -3.4730    0.9080    0.5980 ha        1 7IP      0.167000
     41 H211       -0.5010    2.1140    2.4330 hn        1 7IP      0.477133
     42 H212       -1.1130    1.6580    0.9510 hn        1 7IP      0.477133
     43 H23        -0.7660   -1.0720    4.3170 ha        1 7IP      0.125000
     44 H213       -1.6450    3.0840    1.6760 hn        1 7IP      0.477133
@<TRIPOS>BOND
     1    1    2 1   
     2    1   24 1   
     3    1   25 1   
     4    1   26 1   
     5    2    3 1   
     6    3    4 ar  
     7    3    8 ar  
     8    4    5 ar  
     9    4   27 1   
    10    5    6 ar  
    11    5   28 1   
    12    6    7 ar  
    13    6   29 1   
    14    7    8 ar  
    15    7    9 1   
    16    8   30 1   
    17    9   10 ar  
    18    9   23 ar  
    19   10   11 ar  
    20   10   31 1   
    21   11   12 ar  
    22   11   32 1   
    23   12   13 ar  
    24   12   33 1   
    25   13   14 1   
    26   13   23 ar  
    27   14   15 1   
    28   14   34 1   
    29   14   35 1   
    30   15   16 1   
    31   15   36 1   
    32   15   37 1   
    33   16   17 ar  
    34   16   22 ar  
    35   17   18 ar  
    36   17   38 1   
    37   18   19 ar  
    38   18   39 1   
    39   19   20 ar  
    40   19   40 1   
    41   20   21 1   
    42   20   22 ar  
    43   21   41 1   
    44   21   42 1   
    45   21   44 1   
    46   23   43 1   
@<TRIPOS>SUBSTRUCTURE
     1 7IP         1 TEMP              0 ****  ****    0 ROOT
