@<TRIPOS>MOLECULE
7IP
   43    37     1     0     0
SMALL
bcc


@<TRIPOS>ATOM
      1 C1          3.2200   -6.0920   -2.3600 c3        1 7IP     -0.076000
      2 O2          2.2230   -5.1170   -2.5960 os        1 7IP     -0.211000
      3 C3          2.6490   -3.7830   -2.3210 c2        1 7IP      0.078000
      4 C4          3.5290   -3.1350   -3.1960 c2        1 7IP     -0.202000
      5 C5          3.8750   -1.7850   -2.9760 c1        1 7IP     -0.097000
      6 C6          3.3450   -1.1000   -1.8960 c1        1 7IP     -0.136500
      7 C7          2.4730   -1.7410   -1.0270 c1        1 7IP     -0.022000
      8 C8          2.1220   -3.1000   -1.2450 c1        1 7IP     -0.146000
      9 C9          1.8630   -1.0080    0.0340 c1        1 7IP     -0.022000
     10 C10         2.4320   -1.0190    1.2990 c1        1 7IP     -0.136500
     11 C11         1.8650   -0.2700    2.3300 c1        1 7IP     -0.128500
     12 C12         0.7150    0.4990    2.0920 c1        1 7IP     -0.128500
     13 C13         0.1380    0.5150    0.8250 c1        1 7IP     -0.074000
     14 C14        -1.2010    1.2280    0.6070 c3        1 7IP     -0.119000
     15 C15        -1.1650    2.5920    1.2880 c3        1 7IP     -0.111000
     16 C16        -2.6040    3.1180    1.4540 c2        1 7IP      0.027000
     17 C17        -2.9420    3.8660    2.5580 c2        1 7IP     -0.227000
     18 C18        -4.2190    4.3870    2.6740 c1        1 7IP     -0.059000
     19 C19        -5.1440    4.1590    1.6940 c1        1 7IP     -0.236000
     20 C20        -4.8100    3.4120    0.5880 c1        1 7IP      0.110000
     21 N21        -5.7960    3.1340   -0.3940 n2        1 7IP     -0.322000
     22 N22        -3.5410    2.8890    0.4650 n2        1 7IP     -0.201000
     23 C23         0.7070   -0.2380   -0.2100 c1        1 7IP     -0.111000
     24 H11A        3.2740   -6.2910   -1.3430 h1        1 7IP      0.083000
     25 H12A        2.9850   -6.9490   -2.8620 h1        1 7IP      0.083000
     26 H13         4.1210   -5.7420   -2.6870 h1        1 7IP      0.083000
     27 H4          3.9180   -3.6390   -3.9930 ha        1 7IP      0.137000
     28 H5          4.5060   -1.3200   -3.6030 ha        1 7IP      0.132000
     29 H6          3.5780   -0.1850   -1.7480 ha        1 7IP      0.135500
     30 H8          1.4990   -3.5580   -0.6250 ha        1 7IP      0.153000
     31 H10         3.2710   -1.5800    1.4780 ha        1 7IP      0.135500
     32 H11         2.2790   -0.2820    3.2360 ha        1 7IP      0.131000
     33 H12         0.3050    1.0430    2.8380 ha        1 7IP      0.131000
     34 H141       -1.9360    0.6830    0.9980 hc        1 7IP      0.098000
     35 H142       -1.3500    1.3400   -0.3220 hc        1 7IP      0.098000
     36 H151       -0.6480    3.2260    0.7330 hc        1 7IP      0.099000
     37 H152       -0.7250    2.5040    2.1990 hc        1 7IP      0.099000
     38 H17        -2.2860    4.0270    3.2590 ha        1 7IP      0.142000
     39 H18        -4.4690    4.9380    3.4860 ha        1 7IP      0.135000
     40 H19        -6.0790    4.5440    1.7790 ha        1 7IP      0.141000
     41 H211       -6.6710    3.4380   -0.2740 hn        1 7IP      0.197000
     42 H212       -5.5940    2.6190   -1.0970 hn        1 7IP      0.197000
     43 H23         0.2880   -0.2270   -1.1390 ha        1 7IP      0.141000
@<TRIPOS>BOND
     1    1    2 1   
     2    1   24 1   
     3    1   25 1   
     4    1   26 1   
     5    2    3 1   
     6    3    4 1   
     7    3    8 1   
     8    4    5 1   
     9    4   27 1   
    10    5   28 1   
    11    6    7 1   
    12    6   29 1   
    13    8   30 1   
    14    9   10 1   
    15   10   31 1   
    16   11   12 1   
    17   11   32 1   
    18   12   33 1   
    19   13   14 1   
    20   13   23 1   
    21   14   15 1   
    22   14   34 1   
    23   14   35 1   
    24   15   16 1   
    25   15   36 1   
    26   15   37 1   
    27   16   17 1   
    28   16   22 1   
    29   17   18 1   
    30   17   38 1   
    31   18   39 1   
    32   19   20 1   
    33   19   40 1   
    34   20   22 1   
    35   21   41 1   
    36   21   42 1   
    37   23   43 1   
@<TRIPOS>SUBSTRUCTURE
     1 7IP         1 TEMP              0 ****  ****    0 ROOT
