@<TRIPOS>MOLECULE
7IP
   43    45     1     0     0
SMALL
bcc


@<TRIPOS>ATOM
      1 C1          5.8610   -5.7450    0.6080 c3        1 7IP      0.112700
      2 O2          6.4890   -4.9220   -0.3680 os        1 7IP     -0.330900
      3 C3          5.8970   -3.6950   -0.6030 ca        1 7IP      0.122100
      4 C4          6.5120   -2.9270   -1.6100 ca        1 7IP     -0.155000
      5 C5          5.9860   -1.6780   -1.9180 ca        1 7IP     -0.103000
      6 C6          4.8670   -1.1900   -1.2440 ca        1 7IP     -0.155000
      7 C7          4.2600   -1.9530   -0.2400 cp        1 7IP     -0.003000
      8 C8          4.7780   -3.2150    0.0850 ca        1 7IP     -0.192000
      9 C9          3.0860   -1.4450    0.4710 cp        1 7IP     -0.038000
     10 C10         2.0520   -0.8120   -0.2310 ca        1 7IP     -0.117000
     11 C11         0.9300   -0.3440    0.4500 ca        1 7IP     -0.130000
     12 C12         0.8310   -0.4960    1.8300 ca        1 7IP     -0.123000
     13 C13         1.8610   -1.1200    2.5460 ca        1 7IP     -0.077300
     14 C14         1.7610   -1.2580    4.0250 c3        1 7IP     -0.032100
     15 C15         0.7990   -2.3550    4.4530 c3        1 7IP     -0.131700
     16 C16         1.4670   -3.7020    4.5070 ca        1 7IP      0.452600
     17 C17         2.3980   -3.9400    5.5430 ca        1 7IP     -0.295300
     18 C18         3.0090   -5.1890    5.6200 ca        1 7IP     -0.060000
     19 C19         2.7000   -6.1650    4.6790 ca        1 7IP     -0.302300
     20 C20         1.7610   -5.8510    3.6510 ca        1 7IP      0.624200
     21 N21         1.5240   -6.7910    2.6330 nh        1 7IP     -0.922500
     22 N22         1.1380   -4.6300    3.5850 nb        1 7IP     -0.716000
     23 C23         2.9840   -1.5930    1.8610 ca        1 7IP     -0.105000
     24 H11A        4.8080   -5.9740    0.3160 h1        1 7IP      0.045700
     25 H12A        5.8910   -5.2560    1.6130 h1        1 7IP      0.045700
     26 H13         6.4840   -6.6750    0.6040 h1        1 7IP      0.045700
     27 H4          7.3920   -3.3250   -2.1340 ha        1 7IP      0.148000
     28 H5          6.4590   -1.0680   -2.7030 ha        1 7IP      0.133000
     29 H6          4.4620   -0.1980   -1.4960 ha        1 7IP      0.135000
     30 H8          4.2910   -3.8140    0.8670 ha        1 7IP      0.148000
     31 H10         2.1260   -0.6940   -1.3230 ha        1 7IP      0.135000
     32 H11         0.1180    0.1470   -0.1070 ha        1 7IP      0.131000
     33 H12        -0.0570   -0.1280    2.3640 ha        1 7IP      0.129000
     34 H141        2.7760   -1.4550    4.4630 hc        1 7IP      0.051200
     35 H142        1.3980   -0.2840    4.4520 hc        1 7IP      0.051200
     36 H151       -0.0870   -2.3660    3.7630 hc        1 7IP      0.062200
     37 H152        0.4200   -2.1260    5.4860 hc        1 7IP      0.062200
     38 H17         2.6260   -3.1500    6.2700 ha        1 7IP      0.142000
     39 H18         3.7320   -5.4050    6.4200 ha        1 7IP      0.135000
     40 H19         3.1740   -7.1540    4.7210 ha        1 7IP      0.141000
     41 H211        0.7470   -6.5960    2.0380 hn        1 7IP      0.400300
     42 H212        1.5540   -7.7330    2.9530 hn        1 7IP      0.400300
     43 H23         3.7970   -2.0850    2.4160 ha        1 7IP      0.137000
@<TRIPOS>BOND
     1    1    2 1   
     2    1   24 1   
     3    1   25 1   
     4    1   26 1   
     5    2    3 1   
     6    3    4 ar  
     7    3    8 ar  
     8    4    5 ar  
     9    4   27 1   
    10    5    6 ar  
    11    5   28 1   
    12    6    7 ar  
    13    6   29 1   
    14    7    8 ar  
    15    7    9 1   
    16    8   30 1   
    17    9   10 ar  
    18    9   23 ar  
    19   10   11 ar  
    20   10   31 1   
    21   11   12 ar  
    22   11   32 1   
    23   12   13 ar  
    24   12   33 1   
    25   13   14 1   
    26   13   23 ar  
    27   14   15 1   
    28   14   34 1   
    29   14   35 1   
    30   15   16 1   
    31   15   36 1   
    32   15   37 1   
    33   16   17 ar  
    34   16   22 ar  
    35   17   18 ar  
    36   17   38 1   
    37   18   19 ar  
    38   18   39 1   
    39   19   20 ar  
    40   19   40 1   
    41   20   21 1   
    42   20   22 ar  
    43   21   41 1   
    44   21   42 1   
    45   23   43 1   
@<TRIPOS>SUBSTRUCTURE
     1 7IP         1 TEMP              0 ****  ****    0 ROOT
