@<TRIPOS>MOLECULE
7IP
   43    45     1     0     0
SMALL
bcc


@<TRIPOS>ATOM
      1 C1          0.8240   -0.0130   -0.3610 c3        1 7IP      0.113700
      2 O2          2.2080   -0.2410   -0.1230 os        1 7IP     -0.328900
      3 C3          2.5970   -0.3070    1.2020 ca        1 7IP      0.121100
      4 C4          3.9720   -0.5350    1.4000 ca        1 7IP     -0.154000
      5 C5          4.4590   -0.6140    2.6990 ca        1 7IP     -0.101000
      6 C6          3.6040   -0.4690    3.7910 ca        1 7IP     -0.154000
      7 C7          2.2360   -0.2440    3.5920 cp        1 7IP     -0.001000
      8 C8          1.7280   -0.1630    2.2870 ca        1 7IP     -0.194000
      9 C9          1.3370   -0.0940    4.7370 cp        1 7IP     -0.041000
     10 C10         1.7350    0.6470    5.8570 ca        1 7IP     -0.118000
     11 C11         0.8740    0.7870    6.9440 ca        1 7IP     -0.129000
     12 C12        -0.3840    0.1910    6.9260 ca        1 7IP     -0.118000
     13 C13        -0.7960   -0.5520    5.8130 ca        1 7IP     -0.075300
     14 C14        -2.1300   -1.2140    5.8030 c3        1 7IP     -0.033100
     15 C15        -3.2900   -0.2340    5.8470 c3        1 7IP     -0.130700
     16 C16        -3.5280    0.4300    4.5180 ca        1 7IP      0.455600
     17 C17        -3.9960   -0.3650    3.4480 ca        1 7IP     -0.297300
     18 C18        -4.2230    0.2420    2.2150 ca        1 7IP     -0.060000
     19 C19        -3.9930    1.6040    2.0640 ca        1 7IP     -0.304300
     20 C20        -3.5380    2.3500    3.1930 ca        1 7IP      0.631200
     21 N21        -3.4060    3.7440    3.0850 nv        1 7IP     -0.923500
     22 N22        -3.2960    1.7540    4.4060 nb        1 7IP     -0.718000
     23 C23         0.0690   -0.6900    4.7230 ca        1 7IP     -0.111000
     24 H11A        0.7500   -0.0010   -1.4780 h1        1 7IP      0.043367
     25 H12A        0.5070    0.9690    0.0660 h1        1 7IP      0.043367
     26 H13         0.2080   -0.8420    0.0650 h1        1 7IP      0.043367
     27 H4          4.6340   -0.6460    0.5300 ha        1 7IP      0.149000
     28 H5          5.5320   -0.7930    2.8660 ha        1 7IP      0.134000
     29 H6          4.0030   -0.5400    4.8140 ha        1 7IP      0.137000
     30 H8          0.6550    0.0220    2.1360 ha        1 7IP      0.142000
     31 H10         2.7260    1.1240    5.8740 ha        1 7IP      0.135000
     32 H11         1.1900    1.3740    7.8200 ha        1 7IP      0.132000
     33 H12        -1.0600    0.3040    7.7870 ha        1 7IP      0.132000
     34 H141       -2.2290   -1.8680    4.8950 hc        1 7IP      0.050700
     35 H142       -2.2020   -1.8820    6.7050 hc        1 7IP      0.050700
     36 H151       -4.2270   -0.7930    6.1170 hc        1 7IP      0.062200
     37 H152       -3.1060    0.5270    6.6520 hc        1 7IP      0.062200
     38 H17        -4.1760   -1.4370    3.5950 ha        1 7IP      0.141000
     39 H18        -4.5850   -0.3530    1.3620 ha        1 7IP      0.134000
     40 H19        -4.1740    2.1000    1.1020 ha        1 7IP      0.140000
     41 H211       -2.9170    4.1930    3.8280 hn        1 7IP      0.402300
     42 H212       -3.1290    4.0470    2.1790 hn        1 7IP      0.402300
     43 H23        -0.2440   -1.2790    3.8470 ha        1 7IP      0.134000
@<TRIPOS>BOND
     1    1    2 1   
     2    1   24 1   
     3    1   25 1   
     4    1   26 1   
     5    2    3 1   
     6    3    4 ar  
     7    3    8 ar  
     8    4    5 ar  
     9    4   27 1   
    10    5    6 ar  
    11    5   28 1   
    12    6    7 ar  
    13    6   29 1   
    14    7    8 ar  
    15    7    9 1   
    16    8   30 1   
    17    9   10 ar  
    18    9   23 ar  
    19   10   11 ar  
    20   10   31 1   
    21   11   12 ar  
    22   11   32 1   
    23   12   13 ar  
    24   12   33 1   
    25   13   14 1   
    26   13   23 ar  
    27   14   15 1   
    28   14   34 1   
    29   14   35 1   
    30   15   16 1   
    31   15   36 1   
    32   15   37 1   
    33   16   17 ar  
    34   16   22 ar  
    35   17   18 ar  
    36   17   38 1   
    37   18   19 ar  
    38   18   39 1   
    39   19   20 ar  
    40   19   40 1   
    41   20   21 1   
    42   20   22 ar  
    43   21   41 1   
    44   21   42 1   
    45   23   43 1   
@<TRIPOS>SUBSTRUCTURE
     1 7IP         1 TEMP              0 ****  ****    0 ROOT
