@<TRIPOS>MOLECULE
7J5
   65    66     1     0     0
SMALL
bcc


@<TRIPOS>ATOM
      1 CAA         1.8440   -1.1230   -0.0950 c3        1 7J5     -0.124100
      2 CAB        12.9410    0.1420    0.8330 c3        1 7J5     -0.096100
      3 CAF         3.8940    0.9870    2.8390 ce        1 7J5      0.406800
      4 CAG        21.8480    3.8120    0.5170 ca        1 7J5      0.416200
      5 CAH        21.2560    3.2680    1.6900 ca        1 7J5     -0.169300
      6 CAI         5.9380    2.1720    3.5220 ca        1 7J5     -0.070000
      7 CAJ         6.1800    0.0920    2.3130 ca        1 7J5     -0.070000
      8 CAK         7.3160    2.3060    3.5970 ca        1 7J5     -0.188000
      9 CAL         7.5690    0.2090    2.3790 ca        1 7J5     -0.188000
     10 CAM        19.5660    2.2850    0.2810 ca        1 7J5     -0.105300
     11 CAN         2.5340   -1.7670    1.0780 c3        1 7J5      0.148400
     12 CAO        10.3510    0.5550    2.5710 c3        1 7J5      0.130400
     13 CAP        11.7650    1.0370    2.8500 c3        1 7J5     -0.085400
     14 CAQ        14.1280    0.3040    3.0360 c3        1 7J5     -0.111400
     15 CAR        15.1480   -0.7860    2.7060 c3        1 7J5      0.087000
     16 CAS        16.4460   -0.9830    4.8620 c3        1 7J5     -0.054300
     17 CAT        17.6580   -0.1460    5.3030 c2        1 7J5      0.453200
     18 CAY        19.6490    2.6340   -2.1540 c         1 7J5      0.475600
     19 CAZ        17.3960    0.2430    3.1240 c         1 7J5      0.790900
     20 NAC        20.3890    3.2670   -3.3200 n4        1 7J5     -0.749400
     21 NAU         3.0640    0.1410    2.3060 n2        1 7J5     -0.431200
     22 NAV        21.3580    3.6250   -0.7070 nb        1 7J5     -0.690000
     23 OAD        18.6550    2.0000   -2.4690 o         1 7J5     -0.414100
     24 OAE        17.6170    0.7290    2.0030 o         1 7J5     -0.629500
     25 OAW         3.5480   -0.8960    1.6520 os        1 7J5     -0.202300
     26 OAX         9.4910    1.5430    3.1520 os        1 7J5     -0.332900
     27 CBA         5.3510    1.0650    2.8800 ca        1 7J5     -0.185900
     28 CBB         8.1350    1.3150    3.0210 ca        1 7J5      0.132100
     29 CBC        20.1080    2.5010    1.5620 ca        1 7J5     -0.087000
     30 CBD        20.2230    2.8640   -0.8180 ca        1 7J5      0.265800
     31 CBE        12.7990    0.0440    2.3380 c3        1 7J5     -0.058700
     32 NBF        16.3930   -0.7330    3.4200 n         1 7J5     -0.451800
     33 NBG        18.1950    0.5310    4.3300 ne        1 7J5     -0.602100
     34 HAA1        2.5940   -0.7200   -0.8180 hc        1 7J5      0.048700
     35 HAA2        1.2100   -1.8800   -0.6170 hc        1 7J5      0.048700
     36 HAA3        1.1920   -0.2810    0.2400 hc        1 7J5      0.048700
     37 HAN1        1.8020   -2.0810    1.8650 h1        1 7J5      0.056700
     38 HAN2        3.1580   -2.6460    0.7610 h1        1 7J5      0.056700
     39 HAB1       13.3860    1.1240    0.5420 hc        1 7J5      0.039033
     40 HAB2       13.5970   -0.6740    0.4460 hc        1 7J5      0.039033
     41 HAB3       11.9430    0.0490    0.3410 hc        1 7J5      0.039033
     42 HBE        12.4580   -0.9980    2.5990 hc        1 7J5      0.052700
     43 HAF         3.3640    1.8110    3.3660 h4        1 7J5      0.027800
     44 HAG        22.7650    4.4300    0.5830 h4        1 7J5      0.052100
     45 HAH        21.7130    3.4620    2.6730 ha        1 7J5      0.178000
     46 HAI         5.2950    2.9440    3.9730 ha        1 7J5      0.147500
     47 HAK         7.7790    3.1670    4.0980 ha        1 7J5      0.142500
     48 HAJ         5.7440   -0.7840    1.8060 ha        1 7J5      0.147500
     49 HAL         8.1960   -0.5710    1.9270 ha        1 7J5      0.142500
     50 HAM        18.6520    1.6750    0.1610 ha        1 7J5      0.207000
     51 HAO1       10.1500    0.4860    1.4690 h1        1 7J5      0.041700
     52 HAO2       10.1590   -0.4400    3.0520 h1        1 7J5      0.041700
     53 HAP1       11.9200    2.0370    2.3680 hc        1 7J5      0.059700
     54 HAP2       11.8800    1.1800    3.9570 hc        1 7J5      0.059700
     55 HAQ1       14.5250    1.3040    2.7230 hc        1 7J5      0.048700
     56 HAQ2       13.9540    0.3410    4.1440 hc        1 7J5      0.048700
     57 HAR1       14.6910   -1.7960    2.9140 h1        1 7J5      0.072200
     58 HAR2       15.4050   -0.7280    1.6080 h1        1 7J5      0.072200
     59 HAS1       15.5130   -0.6610    5.3960 h1        1 7J5      0.094700
     60 HAS2       16.6290   -2.0750    5.0490 h1        1 7J5      0.094700
     61 HAT1       19.6010    2.0490    2.4360 ha        1 7J5      0.206000
     62 HAT2       18.0240   -0.1470    6.3380 h4        1 7J5      0.066800
     63 HAC1       19.9140    3.0490   -4.2020 hn        1 7J5      0.470800
     64 HAC2       21.3500    2.9120   -3.3490 hn        1 7J5      0.470800
     65 HAC3       20.4240    4.2840   -3.1900 hn        1 7J5      0.470800
@<TRIPOS>BOND
     1    1   11 1   
     2    1   34 1   
     3    1   35 1   
     4    1   36 1   
     5    2   31 1   
     6    2   39 1   
     7    2   40 1   
     8    2   41 1   
     9    3   21 2   
    10    3   27 1   
    11    3   43 1   
    12    4    5 ar  
    13    4   22 ar  
    14    4   44 1   
    15    5   29 ar  
    16    5   45 1   
    17    6    8 ar  
    18    6   27 ar  
    19    6   46 1   
    20    7    9 ar  
    21    7   27 ar  
    22    7   48 1   
    23    8   28 ar  
    24    8   47 1   
    25    9   28 ar  
    26    9   49 1   
    27   10   29 ar  
    28   10   30 ar  
    29   10   50 1   
    30   11   25 1   
    31   11   37 1   
    32   11   38 1   
    33   12   13 1   
    34   12   26 1   
    35   12   51 1   
    36   12   52 1   
    37   13   31 1   
    38   13   53 1   
    39   13   54 1   
    40   14   15 1   
    41   14   31 1   
    42   14   55 1   
    43   14   56 1   
    44   15   32 1   
    45   15   57 1   
    46   15   58 1   
    47   16   17 1   
    48   16   32 1   
    49   16   59 1   
    50   16   60 1   
    51   17   33 2   
    52   17   62 1   
    53   18   20 1   
    54   18   23 2   
    55   18   30 1   
    56   19   24 2   
    57   19   32 1   
    58   19   33 1   
    59   20   63 1   
    60   20   64 1   
    61   20   65 1   
    62   21   25 1   
    63   22   30 ar  
    64   26   28 1   
    65   29   61 1   
    66   31   42 1   
@<TRIPOS>SUBSTRUCTURE
     1 7J5         1 TEMP              0 ****  ****    0 ROOT
