@<TRIPOS>MOLECULE
7J5
   65    66     1     0     0
SMALL
bcc


@<TRIPOS>ATOM
      1 CAA         1.8370   -0.9980   -0.1280 c3        1 7J5     -0.124100
      2 CAB        12.9340    0.1660    0.8320 c3        1 7J5     -0.096100
      3 CAF         3.8980    0.9740    2.8920 ce        1 7J5      0.406800
      4 CAG        21.8470    3.8060    0.5220 ca        1 7J5      0.416200
      5 CAH        21.2590    3.2450    1.6900 ca        1 7J5     -0.169300
      6 CAI         5.9470    2.1340    3.6050 ca        1 7J5     -0.070000
      7 CAJ         6.1810    0.0920    2.3320 ca        1 7J5     -0.070000
      8 CAK         7.3250    2.2630    3.6790 ca        1 7J5     -0.188000
      9 CAL         7.5710    0.2050    2.3960 ca        1 7J5     -0.188000
     10 CAM        19.5600    2.2870    0.2740 ca        1 7J5     -0.105300
     11 CAN         2.5280   -1.6960    1.0140 c3        1 7J5      0.148400
     12 CAO        10.3530    0.5410    2.5880 c3        1 7J5      0.130400
     13 CAP        11.7690    1.0120    2.8760 c3        1 7J5     -0.085400
     14 CAQ        14.1330    0.2740    3.0320 c3        1 7J5     -0.111400
     15 CAR        15.1490   -0.8120    2.6750 c3        1 7J5      0.087000
     16 CAS        16.4600   -1.0490    4.8190 c3        1 7J5     -0.054300
     17 CAT        17.6770   -0.2230    5.2670 c2        1 7J5      0.453200
     18 CAY        19.6320    2.6730   -2.1550 c         1 7J5      0.475600
     19 CAZ        17.4020    0.2040    3.0960 c         1 7J5      0.790900
     20 NAC        20.3670    3.3220   -3.3150 nz        1 7J5     -0.749400
     21 NAU         3.0660    0.1530    2.3250 n2        1 7J5     -0.431200
     22 NAV        21.3500    3.6380   -0.7020 nb        1 7J5     -0.690000
     23 OAD        18.6340    2.0470   -2.4750 o         1 7J5     -0.414100
     24 OAE        17.6160    0.7100    1.9830 o         1 7J5     -0.629500
     25 OAW         3.5460   -0.8540    1.6240 os        1 7J5     -0.202300
     26 OAX         9.4980    1.5110    3.2030 os        1 7J5     -0.332900
     27 CBA         5.3560    1.0490    2.9300 ca        1 7J5     -0.185900
     28 CBB         8.1410    1.2890    3.0690 ca        1 7J5      0.132100
     29 CBC        20.1100    2.4830    1.5560 ca        1 7J5     -0.087000
     30 CBD        20.2130    2.8820   -0.8190 ca        1 7J5      0.265800
     31 CBE        12.8000    0.0320    2.3350 c3        1 7J5     -0.058700
     32 NBF        16.3990   -0.7740    3.3820 n         1 7J5     -0.451800
     33 NBG        18.2090    0.4700    4.3020 ne        1 7J5     -0.602100
     34 HAA1        1.2000   -1.7290   -0.6810 hc        1 7J5      0.048700
     35 HAA2        1.1880   -0.1710    0.2470 hc        1 7J5      0.048700
     36 HAA3        2.5860   -0.5640   -0.8330 hc        1 7J5      0.048700
     37 HAN1        1.7970   -2.0430    1.7880 h1        1 7J5      0.056700
     38 HAN2        3.1490   -2.5610    0.6560 h1        1 7J5      0.056700
     39 HAB1       11.9340    0.0820    0.3430 hc        1 7J5      0.038700
     40 HAB2       13.3760    1.1550    0.5620 hc        1 7J5      0.038700
     41 HAB3       13.5900   -0.6400    0.4220 hc        1 7J5      0.038700
     42 HBE        12.4600   -1.0160    2.5730 hc        1 7J5      0.052700
     43 HAF         3.3720    1.7750    3.4570 h4        1 7J5      0.027800
     44 HAG        22.7660    4.4200    0.5930 h4        1 7J5      0.052100
     45 HAH        21.7220    3.4230    2.6730 ha        1 7J5      0.178000
     46 HAI         5.3070    2.8930    4.0810 ha        1 7J5      0.147500
     47 HAK         7.7920    3.1080    4.2040 ha        1 7J5      0.142500
     48 HAJ         5.7420   -0.7670    1.7990 ha        1 7J5      0.147500
     49 HAL         8.1950   -0.5620    1.9180 ha        1 7J5      0.142500
     50 HAM        18.6440    1.6810    0.1490 ha        1 7J5      0.207000
     51 HAO1       10.1480    0.5050    1.4860 h1        1 7J5      0.041700
     52 HAO2       10.1620   -0.4680    3.0400 h1        1 7J5      0.041700
     53 HAP1       11.8880    1.1250    3.9860 hc        1 7J5      0.059200
     54 HAP2       11.9250    2.0240    2.4210 hc        1 7J5      0.059200
     55 HAQ1       13.9640    0.2890    4.1420 hc        1 7J5      0.048700
     56 HAQ2       14.5310    1.2800    2.7370 hc        1 7J5      0.048700
     57 HAR1       15.3990   -0.7340    1.5770 h1        1 7J5      0.072200
     58 HAR2       14.6910   -1.8250    2.8670 h1        1 7J5      0.072200
     59 HAS1       15.5310   -0.7350    5.3650 h1        1 7J5      0.094700
     60 HAS2       16.6420   -2.1440    4.9860 h1        1 7J5      0.094700
     61 HAT1       19.6060    2.0190    2.4260 ha        1 7J5      0.206000
     62 HAT2       18.0490   -0.2420    6.2990 h4        1 7J5      0.066800
     63 HAC1       21.3270    2.9650   -3.3540 hn        1 7J5      0.470800
     64 HAC2       20.4060    4.3370   -3.1710 hn        1 7J5      0.470800
     65 HAC3       19.8870    3.1180   -4.1990 hn        1 7J5      0.470800
@<TRIPOS>BOND
     1    1   11 1   
     2    1   34 1   
     3    1   35 1   
     4    1   36 1   
     5    2   31 1   
     6    2   39 1   
     7    2   40 1   
     8    2   41 1   
     9    3   21 2   
    10    3   27 1   
    11    3   43 1   
    12    4    5 ar  
    13    4   22 ar  
    14    4   44 1   
    15    5   29 ar  
    16    5   45 1   
    17    6    8 ar  
    18    6   27 ar  
    19    6   46 1   
    20    7    9 ar  
    21    7   27 ar  
    22    7   48 1   
    23    8   28 ar  
    24    8   47 1   
    25    9   28 ar  
    26    9   49 1   
    27   10   29 ar  
    28   10   30 ar  
    29   10   50 1   
    30   11   25 1   
    31   11   37 1   
    32   11   38 1   
    33   12   13 1   
    34   12   26 1   
    35   12   51 1   
    36   12   52 1   
    37   13   31 1   
    38   13   53 1   
    39   13   54 1   
    40   14   15 1   
    41   14   31 1   
    42   14   55 1   
    43   14   56 1   
    44   15   32 1   
    45   15   57 1   
    46   15   58 1   
    47   16   17 1   
    48   16   32 1   
    49   16   59 1   
    50   16   60 1   
    51   17   33 2   
    52   17   62 1   
    53   18   20 1   
    54   18   23 2   
    55   18   30 1   
    56   19   24 2   
    57   19   32 1   
    58   19   33 1   
    59   20   63 1   
    60   20   64 1   
    61   20   65 1   
    62   21   25 1   
    63   22   30 ar  
    64   26   28 1   
    65   29   61 1   
    66   31   42 1   
@<TRIPOS>SUBSTRUCTURE
     1 7J5         1 TEMP              0 ****  ****    0 ROOT
