@<TRIPOS>MOLECULE
7JA
   51    51     1     0     0
SMALL
bcc


@<TRIPOS>ATOM
      1 C          -3.2500    1.5960   -0.0700 c         1 7JA      0.904600
      2 N          -1.8140   -0.4000   -0.5120 n         1 7JA     -0.504900
      3 O          -2.5040    1.8400    0.9250 o         1 7JA     -0.835800
      4 CA         -3.1110    0.2010   -0.7810 c3        1 7JA     -0.054300
      5 CB         -4.2660   -0.7310   -0.3500 c3        1 7JA     -0.040700
      6 C01         6.1620   -3.9730    0.2900 c3        1 7JA     -0.088100
      7 C02         5.0780   -2.9630    0.0110 c3        1 7JA     -0.049200
      8 C03         5.5870   -1.5710    0.0000 c2        1 7JA     -0.190200
      9 C04         4.8050   -0.4890   -0.0840 c2        1 7JA     -0.167200
     10 C05         3.3260   -0.5500   -0.1620 c3        1 7JA     -0.038200
     11 C06         2.6930    0.7720   -0.5630 c3        1 7JA     -0.166700
     12 C07         2.9810    1.8490    0.4720 c         1 7JA      0.577100
     13 O08         4.0680    2.4120    0.6210 o         1 7JA     -0.557100
     14 C09         1.7340    2.1470    1.2600 c3        1 7JA     -0.180400
     15 C10         0.6580    1.2110    0.7310 c3        1 7JA     -0.107400
     16 C11         1.1550    0.7210   -0.6350 c3        1 7JA     -0.061700
     17 C12         0.6010   -0.6290   -1.0360 c3        1 7JA     -0.152400
     18 O14        -1.1180   -0.6080   -2.7100 o         1 7JA     -0.640100
     19 CG1        -5.5880   -0.1110   -0.7830 c3        1 7JA     -0.083400
     20 CG2        -4.2350   -0.9810    1.1430 c3        1 7JA     -0.090100
     21 OXT        -4.0930    2.4000   -0.5440 o         1 7JA     -0.835800
     22 HN         -1.4820   -0.1620    0.4050 hn        1 7JA      0.308500
     23 HA         -3.2040    0.3760   -1.8920 h1        1 7JA      0.073700
     24 HB         -4.1480   -1.7170   -0.8830 hc        1 7JA      0.024700
     25 H01         5.7360   -5.0050    0.2920 hc        1 7JA      0.029367
     26 H01A        6.9600   -3.9210   -0.4890 hc        1 7JA      0.029367
     27 H02         4.6010   -3.1890   -0.9840 hc        1 7JA      0.046700
     28 H03         6.6820   -1.4600    0.0640 ha        1 7JA      0.116000
     29 H04         5.2460    0.5240   -0.0860 ha        1 7JA      0.146000
     30 H05         3.0320   -1.3390   -0.9090 hc        1 7JA      0.054700
     31 H05A        2.9120   -0.8750    0.8330 hc        1 7JA      0.054700
     32 H06         3.1130    1.0870   -1.5550 hc        1 7JA      0.074700
     33 H09         1.9160    1.9940    2.3530 hc        1 7JA      0.075200
     34 H09A        1.4440    3.2190    1.1110 hc        1 7JA      0.075200
     35 H10         0.5260    0.3440    1.4270 hc        1 7JA      0.088200
     36 H10A       -0.3360    1.7330    0.6480 hc        1 7JA      0.088200
     37 H11         0.8320    1.4700   -1.4130 hc        1 7JA      0.070700
     38 H12         1.1840   -1.0290   -1.9080 hc        1 7JA      0.056200
     39 H12A        0.6910   -1.3610   -0.1920 hc        1 7JA      0.056200
     40 HD1        -6.4780   -1.9550   -1.5080 hc        1 7JA      0.016033
     41 HD1A       -6.9020   -1.5390    0.2000 hc        1 7JA      0.016033
     42 HG1        -5.8340    0.7390   -0.0920 hc        1 7JA      0.063700
     43 HG2        -4.1090   -0.0130    1.6900 hc        1 7JA      0.029700
     44 HG2A       -5.1800   -1.4700    1.4820 hc        1 7JA      0.029700
     45 HG2B       -3.3820   -1.6500    1.4110 hc        1 7JA      0.029700
     46 H26         6.6310   -3.7820    1.2850 hc        1 7JA      0.029367
     47 H27         4.2660   -3.0580    0.7840 hc        1 7JA      0.046700
     48 H28        -7.6540   -0.6210   -1.1650 hc        1 7JA      0.016033
     49 H29        -5.4630    0.3410   -1.8030 hc        1 7JA      0.063700
     50 CD1        -6.7140   -1.1120   -0.8140 c3        1 7JA     -0.085100
     51 C13        -0.8520   -0.5130   -1.4900 c         1 7JA      0.639100
@<TRIPOS>BOND
     1    1    3 1   
     2    1    4 1   
     3    1   21 1   
     4    2    4 1   
     5    2   22 1   
     6    2   51 1   
     7    4    5 1   
     8    4   23 1   
     9    5   19 1   
    10    5   20 1   
    11    5   24 1   
    12    6    7 1   
    13    6   25 1   
    14    6   26 1   
    15    6   46 1   
    16    7    8 1   
    17    7   27 1   
    18    7   47 1   
    19    8    9 2   
    20    8   28 1   
    21    9   10 1   
    22    9   29 1   
    23   10   11 1   
    24   10   30 1   
    25   10   31 1   
    26   11   12 1   
    27   11   16 1   
    28   11   32 1   
    29   12   13 2   
    30   12   14 1   
    31   14   15 1   
    32   14   33 1   
    33   14   34 1   
    34   15   16 1   
    35   15   35 1   
    36   15   36 1   
    37   16   17 1   
    38   16   37 1   
    39   17   38 1   
    40   17   39 1   
    41   17   51 1   
    42   18   51 2   
    43   19   42 1   
    44   19   49 1   
    45   19   50 1   
    46   20   43 1   
    47   20   44 1   
    48   20   45 1   
    49   40   50 1   
    50   41   50 1   
    51   48   50 1   
@<TRIPOS>SUBSTRUCTURE
     1 7JA         1 TEMP              0 ****  ****    0 ROOT
