@<TRIPOS>MOLECULE
7JZ
   23    23     1     0     0
SMALL
bcc


@<TRIPOS>ATOM
      1 F2A        -1.5850   -1.6420   -0.7410 f         1 7JZ     -0.227300
      2 C2         -0.2630   -1.6530   -0.7280 c3        1 7JZ      0.310600
      3 F2B         0.1720   -2.8090   -1.3500 f         1 7JZ     -0.227300
      4 C1          0.1820   -1.6790    0.6430 c3        1 7JZ      0.323900
      5 C3          0.1960   -0.5660   -1.4610 c3        1 7JZ      0.066100
      6 O3         -0.4880   -0.5660   -2.7840 oh        1 7JZ     -0.588800
      7 C4         -0.0580    0.7510   -0.8010 c3        1 7JZ      0.129100
      8 O4         -1.4250    0.9650   -0.7630 oh        1 7JZ     -0.585800
      9 C5          0.5160    0.8600    0.6980 c3        1 7JZ      0.106100
     10 O5         -0.0700   -0.4190    1.3770 os        1 7JZ     -0.436600
     11 C6          0.0850    1.9460    1.2840 c3        1 7JZ      0.144400
     12 O6          0.5520    1.9850    2.5640 oh        1 7JZ     -0.596800
     13 O1         -0.4740   -2.7180    1.3060 oh        1 7JZ     -0.563800
     14 H1          1.1660   -1.8630    0.6550 h2        1 7JZ      0.099700
     15 H3          1.1450   -0.6660   -1.6020 h1        1 7JZ      0.068700
     16 HO3         0.1200   -0.4560   -3.4350 ho        1 7JZ      0.429000
     17 H4          0.3350    1.4250   -1.3220 h1        1 7JZ      0.066700
     18 HO4        -1.6190    1.6680   -1.2320 ho        1 7JZ      0.431000
     19 H5          1.5170    0.8310    0.6980 h1        1 7JZ      0.059700
     20 H6         -0.9030    1.9480    1.2930 h1        1 7JZ      0.070700
     21 H6A         0.4200    2.7560    0.7790 h1        1 7JZ      0.070700
     22 HO6         0.5230    2.8060    2.8590 ho        1 7JZ      0.415000
     23 H10        -0.0420   -2.9040    2.0650 ho        1 7JZ      0.436000
@<TRIPOS>BOND
     1    1    2 1   
     2    2    3 1   
     3    2    4 1   
     4    2    5 1   
     5    4   10 1   
     6    4   13 1   
     7    4   14 1   
     8    5    6 1   
     9    5    7 1   
    10    5   15 1   
    11    6   16 1   
    12    7    8 1   
    13    7    9 1   
    14    7   17 1   
    15    8   18 1   
    16    9   10 1   
    17    9   11 1   
    18    9   19 1   
    19   11   12 1   
    20   11   20 1   
    21   11   21 1   
    22   12   22 1   
    23   13   23 1   
@<TRIPOS>SUBSTRUCTURE
     1 7JZ         1 TEMP              0 ****  ****    0 ROOT
