@<TRIPOS>MOLECULE
7JZ
   23    23     1     0     0
SMALL
bcc


@<TRIPOS>ATOM
      1 F2A         1.6420    0.3400    1.1310 f         1 7JZ     -0.227300
      2 C2          1.3090    0.3650   -0.2050 c3        1 7JZ      0.310600
      3 F2B         2.5010    0.7500   -0.7900 f         1 7JZ     -0.227300
      4 C1          0.1710    1.4110   -0.5070 c3        1 7JZ      0.323900
      5 C3          0.8790   -1.0410   -0.7360 c3        1 7JZ      0.066100
      6 O3          1.7490   -2.0500   -0.2640 oh        1 7JZ     -0.588800
      7 C4         -0.5290   -1.4200   -0.2490 c3        1 7JZ      0.129100
      8 O4         -0.5700   -1.6420    1.1470 oh        1 7JZ     -0.585800
      9 C5         -1.5090   -0.2870   -0.5820 c3        1 7JZ      0.106100
     10 O5         -1.0790    0.9570   -0.0260 os        1 7JZ     -0.436600
     11 C6         -2.8900   -0.5490    0.0290 c3        1 7JZ      0.144400
     12 O6         -3.8240    0.4080   -0.4160 oh        1 7JZ     -0.596800
     13 O1          0.3570    2.6000    0.1920 oh        1 7JZ     -0.563800
     14 H1          0.1570    1.6560   -1.6030 h2        1 7JZ      0.099700
     15 H3          0.9060   -1.0050   -1.8600 h1        1 7JZ      0.068700
     16 HO3         2.6530   -1.7210   -0.3630 ho        1 7JZ      0.429000
     17 H4         -0.8470   -2.3630   -0.7780 h1        1 7JZ      0.066700
     18 HO4         0.2310   -2.1320    1.3850 ho        1 7JZ      0.431000
     19 H5         -1.5850   -0.1820   -1.7000 h1        1 7JZ      0.059700
     20 H6         -3.2780   -1.5370   -0.3340 h1        1 7JZ      0.070700
     21 H6A        -2.8100   -0.5500    1.1490 h1        1 7JZ      0.070700
     22 HO6        -3.5300    1.2670   -0.0840 ho        1 7JZ      0.415000
     23 H10         0.2300    2.4170    1.1360 ho        1 7JZ      0.436000
@<TRIPOS>BOND
     1    1    2 1   
     2    2    3 1   
     3    2    4 1   
     4    2    5 1   
     5    4   10 1   
     6    4   13 1   
     7    4   14 1   
     8    5    6 1   
     9    5    7 1   
    10    5   15 1   
    11    6   16 1   
    12    7    8 1   
    13    7    9 1   
    14    7   17 1   
    15    8   18 1   
    16    9   10 1   
    17    9   11 1   
    18    9   19 1   
    19   11   12 1   
    20   11   20 1   
    21   11   21 1   
    22   12   22 1   
    23   13   23 1   
@<TRIPOS>SUBSTRUCTURE
     1 7JZ         1 TEMP              0 ****  ****    0 ROOT
