@<TRIPOS>MOLECULE
7KW
   39    42     1     0     0
SMALL
bcc


@<TRIPOS>ATOM
      1 C1          1.6680    3.8200    0.5100 ca        1 7KW     -0.125000
      2 C6          1.2980    2.7990    1.3850 ca        1 7KW     -0.138000
      3 C5          1.8050    1.5120    1.2160 ca        1 7KW     -0.096500
      4 C4          2.6910    1.2400    0.1650 ca        1 7KW     -0.109500
      5 C3          3.0660    2.2690   -0.7100 ca        1 7KW     -0.096500
      6 C2          2.5510    3.5530   -0.5360 ca        1 7KW     -0.138000
      7 C7          3.2340   -0.1000   -0.0080 cc        1 7KW      0.405800
      8 C9          2.4990   -1.3570   -0.0490 cc        1 7KW     -0.319800
      9 C8          3.4890   -2.3480   -0.2080 cd        1 7KW     -0.119300
     10 N2          4.7050   -1.6780   -0.2590 na        1 7KW     -0.010600
     11 N1          4.5720   -0.3560   -0.1400 nd        1 7KW     -0.510800
     12 C10         1.0710   -1.5940    0.0150 ca        1 7KW      0.573800
     13 C14         0.6030   -2.8190    0.5550 ca        1 7KW     -0.419600
     14 C13        -0.7860   -3.0060    0.5960 ca        1 7KW      0.460200
     15 N3         -1.6730   -2.1040    0.1490 nb        1 7KW     -0.734000
     16 C12        -1.1370   -0.9360   -0.3800 ca        1 7KW      0.867900
     17 N4         -1.9950    0.0220   -0.9630 nh        1 7KW     -0.703300
     18 C15        -3.3640    0.1060   -0.6090 ca        1 7KW      0.127600
     19 C20        -3.8770    1.3150   -0.0880 ca        1 7KW     -0.135000
     20 C19        -5.2360    1.4410    0.1810 ca        1 7KW     -0.119500
     21 C18        -6.1050    0.3760   -0.0510 ca        1 7KW     -0.140000
     22 N9          0.2220   -0.6460   -0.4460 nb        1 7KW     -0.736000
     23 C17        -5.6060   -0.8200   -0.5650 ca        1 7KW     -0.119500
     24 C16        -4.2510   -0.9630   -0.8510 ca        1 7KW     -0.135000
     25 H1          1.2670    4.8340    0.6460 ha        1 7KW      0.129000
     26 H2          2.8460    4.3570   -1.2260 ha        1 7KW      0.130500
     27 H6          0.6050    3.0080    2.2130 ha        1 7KW      0.130500
     28 H3          3.7660    2.0620   -1.5320 ha        1 7KW      0.138000
     29 H5          1.5100    0.7060    1.9040 ha        1 7KW      0.138000
     30 HA          5.6080   -2.0790   -0.3630 hn        1 7KW      0.326700
     31 H8          3.4050   -3.4310   -0.2950 h4        1 7KW      0.182000
     32 H14         1.2970   -3.5750    0.9340 ha        1 7KW      0.150000
     33 H13        -1.2250   -3.9310    1.0140 h4        1 7KW      0.025100
     34 H4         -1.5630    0.9120   -1.1240 hn        1 7KW      0.438800
     35 H20        -3.2080    2.1680    0.1050 ha        1 7KW      0.143000
     36 H16        -3.8830   -1.9140   -1.2650 ha        1 7KW      0.143000
     37 H19        -5.6230    2.3890    0.5840 ha        1 7KW      0.132500
     38 H18        -7.1770    0.4790    0.1700 ha        1 7KW      0.132000
     39 H17        -6.2880   -1.6630   -0.7520 ha        1 7KW      0.132500
@<TRIPOS>BOND
     1    1    2 ar  
     2    1    6 ar  
     3    1   25 1   
     4    2    3 ar  
     5    2   27 1   
     6    3    4 ar  
     7    3   29 1   
     8    4    5 ar  
     9    4    7 1   
    10    5    6 ar  
    11    5   28 1   
    12    6   26 1   
    13    7    8 1   
    14    7   11 2   
    15    8    9 2   
    16    8   12 1   
    17    9   10 1   
    18    9   31 1   
    19   10   11 1   
    20   10   30 1   
    21   12   13 ar  
    22   12   22 ar  
    23   13   14 ar  
    24   13   32 1   
    25   14   15 ar  
    26   14   33 1   
    27   15   16 ar  
    28   16   17 1   
    29   16   22 ar  
    30   17   18 1   
    31   17   34 1   
    32   18   19 ar  
    33   18   24 ar  
    34   19   20 ar  
    35   19   35 1   
    36   20   21 ar  
    37   20   37 1   
    38   21   23 ar  
    39   21   38 1   
    40   23   24 ar  
    41   23   39 1   
    42   24   36 1   
@<TRIPOS>SUBSTRUCTURE
     1 7KW         1 TEMP              0 ****  ****    0 ROOT
