@<TRIPOS>MOLECULE
7KW
   39    32     1     0     0
SMALL
bcc


@<TRIPOS>ATOM
      1 C1          3.3450   -3.7440   -0.3290 c1        1 7KW     -0.127333
      2 C6          2.0660   -3.9200   -0.8330 c1        1 7KW     -0.127333
      3 C5          0.9650   -3.5880   -0.0600 c1        1 7KW     -0.127333
      4 C4          1.1430   -3.0810    1.2170 c1        1 7KW     -0.019000
      5 C3          2.4220   -2.9050    1.7210 c1        1 7KW     -0.102000
      6 C2          3.5230   -3.2370    0.9480 c1        1 7KW     -0.127333
      7 C7         -0.0580   -2.7980    2.0910 c2        1 7KW     -0.047000
      8 C9         -0.7260   -1.6110    2.1780 c1        1 7KW     -0.153000
      9 C8         -1.7210   -1.7550    3.1000 c1        1 7KW     -0.067000
     10 N2         -1.6680   -3.0160    3.5780 n2        1 7KW     -0.159000
     11 N1         -0.6340   -3.6640    2.9510 n2        1 7KW     -0.076000
     12 C10        -0.3740   -0.3370    1.4410 c1        1 7KW      0.137000
     13 C14         0.4370    0.5890    2.0300 c2        1 7KW     -0.272000
     14 C13         0.6930    1.7710    1.3980 c1        1 7KW     -0.008000
     15 N3          0.1470    2.0220    0.1990 n1        1 7KW     -0.206000
     16 C12        -0.6630    1.0970   -0.3890 c1        1 7KW      0.146000
     17 N4         -1.2000    1.3430   -1.6800 n2        1 7KW     -0.224000
     18 C15        -1.3010    2.6740   -2.1660 c2        1 7KW      0.044000
     19 C20        -2.4870    3.3760   -2.0210 c2        1 7KW     -0.167000
     20 C19        -2.6150    4.6420   -2.5700 c1        1 7KW     -0.117000
     21 C18        -1.5570    5.2060   -3.2640 c1        1 7KW     -0.127333
     22 N9         -0.9190   -0.0840    0.2410 n2        1 7KW     -0.237000
     23 C17        -0.3700    4.5050   -3.4090 c1        1 7KW     -0.127333
     24 C16        -0.2420    3.2390   -2.8600 c1        1 7KW     -0.103000
     25 H1          4.1210   -3.9780   -0.8730 ha        1 7KW      0.134833
     26 H2          4.4240   -3.1130    1.3030 ha        1 7KW      0.134833
     27 H6          1.9410   -4.2780   -1.7330 ha        1 7KW      0.134833
     28 H3          2.5470   -2.5480    2.6210 ha        1 7KW      0.143000
     29 H5          0.0640   -3.7120   -0.4150 ha        1 7KW      0.134833
     30 HA         -2.2210   -3.3740    4.2070 DU        1 7KW      0.234500
     31 H8         -2.3590   -1.0670    3.3680 DU        1 7KW      0.234500
     32 H14         0.8340    0.4060    2.9030 ha        1 7KW      0.167000
     33 H13         1.2730    2.4340    1.8190 ha        1 7KW      0.164000
     34 H4         -1.4690    0.6460   -2.2020 hn        1 7KW      0.226000
     35 H20        -3.2330    2.9780   -1.5320 ha        1 7KW      0.130000
     36 H16         0.5940    2.7450   -2.9620 ha        1 7KW      0.155000
     37 H19        -3.4510    5.1360   -2.4680 ha        1 7KW      0.131000
     38 H18        -1.6470    6.0980   -3.6510 ha        1 7KW      0.134833
     39 H17         0.3760    4.9030   -3.8980 ha        1 7KW      0.134833
@<TRIPOS>BOND
     1    1    6 1   
     2    1   25 1   
     3    2    3 1   
     4    2   27 1   
     5    3   29 1   
     6    4    5 1   
     7    4    7 1   
     8    5   28 1   
     9    6   26 1   
    10    7    8 1   
    11    7   11 1   
    12    8    9 1   
    13    9   10 1   
    14   10   11 1   
    15   12   13 1   
    16   12   22 1   
    17   13   14 1   
    18   13   32 1   
    19   14   33 1   
    20   15   16 1   
    21   16   22 1   
    22   17   18 1   
    23   17   34 1   
    24   18   19 1   
    25   18   24 1   
    26   19   20 1   
    27   19   35 1   
    28   20   37 1   
    29   21   23 1   
    30   21   38 1   
    31   23   39 1   
    32   24   36 1   
@<TRIPOS>SUBSTRUCTURE
     1 7KW         1 TEMP              0 ****  ****    0 ROOT
