@<TRIPOS>MOLECULE
7KW
   39    42     1     0     0
SMALL
bcc


@<TRIPOS>ATOM
      1 C1          0.2570   -0.4690   -0.1920 ca        1 7KW     -0.125000
      2 C6          1.6470   -0.4960   -0.0740 ca        1 7KW     -0.138000
      3 C5          2.2480   -0.3450    1.1750 ca        1 7KW     -0.096500
      4 C4          1.4560   -0.1640    2.3160 ca        1 7KW     -0.109500
      5 C3          0.0600   -0.1420    2.1960 ca        1 7KW     -0.096500
      6 C2         -0.5330   -0.2920    0.9430 ca        1 7KW     -0.138000
      7 C7          2.0790   -0.0180    3.6240 cc        1 7KW      0.405800
      8 C9          3.1590    0.8860    3.9960 cc        1 7KW     -0.319800
      9 C8          3.4030    0.6150    5.3580 cd        1 7KW     -0.119300
     10 N2          2.5030   -0.3800    5.7230 na        1 7KW     -0.010600
     11 N1          1.7210   -0.7640    4.7140 nd        1 7KW     -0.510800
     12 C10         3.8410    1.8880    3.2010 ca        1 7KW      0.573800
     13 C14         5.1850    2.2130    3.5150 ca        1 7KW     -0.419600
     14 C13         5.8050    3.1880    2.7200 ca        1 7KW      0.460200
     15 N3          5.1950    3.8200    1.7060 nb        1 7KW     -0.734000
     16 C12         3.8750    3.4580    1.4710 ca        1 7KW      0.867900
     17 N4          3.1290    4.1450    0.4870 nu        1 7KW     -0.703300
     18 C15         3.7600    4.8150   -0.5890 ca        1 7KW      0.127600
     19 C20         3.4440    4.4540   -1.9180 ca        1 7KW     -0.135000
     20 C19         3.9880    5.1620   -2.9850 ca        1 7KW     -0.119500
     21 C18         4.8560    6.2280   -2.7570 ca        1 7KW     -0.140000
     22 N9          3.1790    2.4900    2.1860 nb        1 7KW     -0.736000
     23 C17         5.1730    6.5910   -1.4490 ca        1 7KW     -0.119500
     24 C16         4.6310    5.9020   -0.3670 ca        1 7KW     -0.135000
     25 H1         -0.2140   -0.5900   -1.1780 ha        1 7KW      0.129000
     26 H2         -1.6290   -0.2710    0.8530 ha        1 7KW      0.130500
     27 H6          2.2720   -0.6410   -0.9670 ha        1 7KW      0.130500
     28 H3         -0.5660   -0.0070    3.0900 ha        1 7KW      0.138000
     29 H5          3.3440   -0.3630    1.2660 ha        1 7KW      0.138000
     30 HA          2.4080   -0.8050    6.6160 hn        1 7KW      0.326700
     31 H8          4.1150    1.0540    6.0560 h4        1 7KW      0.182000
     32 H14         5.7150    1.7140    4.3310 ha        1 7KW      0.150000
     33 H13         6.8550    3.4850    2.8970 h4        1 7KW      0.025100
     34 H4          2.2710    3.6910    0.2340 hn        1 7KW      0.438800
     35 H20         2.7620    3.6140   -2.1210 ha        1 7KW      0.143000
     36 H16         4.8890    6.2140    0.6570 ha        1 7KW      0.143000
     37 H19         3.7320    4.8720   -4.0150 ha        1 7KW      0.132500
     38 H18         5.2880    6.7800   -3.6040 ha        1 7KW      0.132000
     39 H17         5.8560    7.4340   -1.2630 ha        1 7KW      0.132500
@<TRIPOS>BOND
     1    1    2 ar  
     2    1    6 ar  
     3    1   25 1   
     4    2    3 ar  
     5    2   27 1   
     6    3    4 ar  
     7    3   29 1   
     8    4    5 ar  
     9    4    7 1   
    10    5    6 ar  
    11    5   28 1   
    12    6   26 1   
    13    7    8 1   
    14    7   11 2   
    15    8    9 2   
    16    8   12 1   
    17    9   10 1   
    18    9   31 1   
    19   10   11 1   
    20   10   30 1   
    21   12   13 ar  
    22   12   22 ar  
    23   13   14 ar  
    24   13   32 1   
    25   14   15 ar  
    26   14   33 1   
    27   15   16 ar  
    28   16   17 1   
    29   16   22 ar  
    30   17   18 1   
    31   17   34 1   
    32   18   19 ar  
    33   18   24 ar  
    34   19   20 ar  
    35   19   35 1   
    36   20   21 ar  
    37   20   37 1   
    38   21   23 ar  
    39   21   38 1   
    40   23   24 ar  
    41   23   39 1   
    42   24   36 1   
@<TRIPOS>SUBSTRUCTURE
     1 7KW         1 TEMP              0 ****  ****    0 ROOT
