@<TRIPOS>MOLECULE
7KW
   39    42     1     0     0
SMALL
bcc


@<TRIPOS>ATOM
      1 C1          0.1920   -0.4100   -0.1690 ca        1 7KW     -0.125000
      2 C6          1.5830   -0.4620   -0.0700 ca        1 7KW     -0.138000
      3 C5          2.2030   -0.3280    1.1710 ca        1 7KW     -0.096500
      4 C4          1.4290   -0.1410    2.3240 ca        1 7KW     -0.109500
      5 C3          0.0330   -0.0960    2.2230 ca        1 7KW     -0.096500
      6 C2         -0.5800   -0.2270    0.9770 ca        1 7KW     -0.138000
      7 C7          2.0720   -0.0140    3.6250 cc        1 7KW      0.405800
      8 C9          3.1720    0.8690    3.9880 cc        1 7KW     -0.319800
      9 C8          3.4290    0.5850    5.3450 cd        1 7KW     -0.119300
     10 N2          2.5180   -0.3960    5.7150 na        1 7KW     -0.010600
     11 N1          1.7160   -0.7610    4.7150 nd        1 7KW     -0.510800
     12 C10         3.8610    1.8640    3.1900 ca        1 7KW      0.573800
     13 C14         5.2140    2.1650    3.4870 ca        1 7KW     -0.419600
     14 C13         5.8400    3.1340    2.6900 ca        1 7KW      0.460200
     15 N3          5.2270    3.7820    1.6870 nb        1 7KW     -0.734000
     16 C12         3.8980    3.4440    1.4680 ca        1 7KW      0.867900
     17 N4          3.1510    4.1490    0.4980 nh        1 7KW     -0.703300
     18 C15         3.7790    4.8140   -0.5820 ca        1 7KW      0.127600
     19 C20         3.4380    4.4660   -1.9090 ca        1 7KW     -0.135000
     20 C19         3.9790    5.1700   -2.9800 ca        1 7KW     -0.119500
     21 C18         4.8700    6.2190   -2.7590 ca        1 7KW     -0.140000
     22 N9          3.1950    2.4830    2.1870 nb        1 7KW     -0.736000
     23 C17         5.2100    6.5690   -1.4540 ca        1 7KW     -0.119500
     24 C16         4.6710    5.8840   -0.3670 ca        1 7KW     -0.135000
     25 H1         -0.2940   -0.5170   -1.1490 ha        1 7KW      0.129000
     26 H2         -1.6770   -0.1870    0.9020 ha        1 7KW      0.130500
     27 H6          2.1940   -0.6110   -0.9720 ha        1 7KW      0.130500
     28 H3         -0.5790    0.0450    3.1260 ha        1 7KW      0.138000
     29 H5          3.2990   -0.3660    1.2480 ha        1 7KW      0.138000
     30 HA          2.4280   -0.8260    6.6070 hn        1 7KW      0.326700
     31 H8          4.1580    1.0080    6.0350 h4        1 7KW      0.182000
     32 H14         5.7470    1.6520    4.2930 ha        1 7KW      0.150000
     33 H13         6.8970    3.4120    2.8550 h4        1 7KW      0.025100
     34 H4          2.2820    3.7120    0.2550 hn        1 7KW      0.438800
     35 H20         2.7390    3.6390   -2.1070 ha        1 7KW      0.143000
     36 H16         4.9490    6.1860    0.6540 ha        1 7KW      0.143000
     37 H19         3.7040    4.8900   -4.0080 ha        1 7KW      0.132500
     38 H18         5.2990    6.7680   -3.6090 ha        1 7KW      0.132000
     39 H17         5.9100    7.3990   -1.2730 ha        1 7KW      0.132500
@<TRIPOS>BOND
     1    1    2 ar  
     2    1    6 ar  
     3    1   25 1   
     4    2    3 ar  
     5    2   27 1   
     6    3    4 ar  
     7    3   29 1   
     8    4    5 ar  
     9    4    7 1   
    10    5    6 ar  
    11    5   28 1   
    12    6   26 1   
    13    7    8 1   
    14    7   11 2   
    15    8    9 2   
    16    8   12 1   
    17    9   10 1   
    18    9   31 1   
    19   10   11 1   
    20   10   30 1   
    21   12   13 ar  
    22   12   22 ar  
    23   13   14 ar  
    24   13   32 1   
    25   14   15 ar  
    26   14   33 1   
    27   15   16 ar  
    28   16   17 1   
    29   16   22 ar  
    30   17   18 1   
    31   17   34 1   
    32   18   19 ar  
    33   18   24 ar  
    34   19   20 ar  
    35   19   35 1   
    36   20   21 ar  
    37   20   37 1   
    38   21   23 ar  
    39   21   38 1   
    40   23   24 ar  
    41   23   39 1   
    42   24   36 1   
@<TRIPOS>SUBSTRUCTURE
     1 7KW         1 TEMP              0 ****  ****    0 ROOT
