@<TRIPOS>MOLECULE
7KW
   40    43     1     0     0
SMALL
bcc


@<TRIPOS>ATOM
      1 C1          0.0010    0.5070   -0.2020 ca        1 7KW     -0.119000
      2 C6          1.3630    0.4220   -0.4910 ca        1 7KW     -0.144500
      3 C5          2.2850    0.1950    0.5300 ca        1 7KW     -0.100000
      4 C4          1.8410    0.0540    1.8500 ca        1 7KW     -0.124500
      5 C3          0.4730    0.1320    2.1390 ca        1 7KW     -0.100000
      6 C2         -0.4420    0.3640    1.1130 ca        1 7KW     -0.144500
      7 C7          2.7950   -0.2060    2.9220 cc        1 7KW      0.423800
      8 C9          3.7110    0.7470    3.5460 cc        1 7KW     -0.379800
      9 C8          4.4000   -0.0120    4.5260 cd        1 7KW     -0.077300
     10 N2          3.8940   -1.2960    4.4460 na        1 7KW      0.014400
     11 N1          2.9490   -1.4270    3.5110 nd        1 7KW     -0.477800
     12 C10         3.8800    2.1450    3.2700 ca        1 7KW      0.605800
     13 C14         4.7440    2.9430    4.0730 ca        1 7KW     -0.334600
     14 C13         4.8590    4.3070    3.7720 ca        1 7KW      0.463200
     15 N3          4.1900    4.8930    2.7550 nb        1 7KW     -0.685000
     16 C12         3.3880    4.0420    2.0390 ca        1 7KW      0.720900
     17 N4          2.6360    4.6470    0.8890 n4        1 7KW     -0.607100
     18 C15         3.4220    4.5870   -0.3480 ca        1 7KW     -0.053400
     19 C20         3.4260    3.4040   -1.1080 ca        1 7KW     -0.094500
     20 C19         4.1530    3.3700   -2.2960 ca        1 7KW     -0.110500
     21 C18         4.8740    4.4890   -2.7180 ca        1 7KW     -0.071000
     22 N9          3.1930    2.7040    2.2290 nb        1 7KW     -0.681000
     23 C17         4.8740    5.6540   -1.9500 ca        1 7KW     -0.110500
     24 C16         4.1550    5.7150   -0.7580 ca        1 7KW     -0.094500
     25 H1         -0.7250    0.6680   -1.0130 ha        1 7KW      0.143000
     26 H2         -1.5180    0.4150    1.3400 ha        1 7KW      0.140500
     27 H6          1.7090    0.5010   -1.5330 ha        1 7KW      0.140500
     28 H3          0.1190   -0.0040    3.1730 ha        1 7KW      0.142500
     29 H5          3.3570    0.1080    0.2990 ha        1 7KW      0.142500
     30 HA          4.1630   -2.0860    4.9930 hn        1 7KW      0.346700
     31 H8          5.1810    0.2720    5.2340 h4        1 7KW      0.192000
     32 H14         5.3010    2.5020    4.9100 ha        1 7KW      0.179000
     33 H13         5.5110    4.9840    4.3610 h4        1 7KW      0.065100
     34 H4          2.4220    5.6300    1.1120 hn        1 7KW      0.476800
     35 H20         2.8710    2.5050   -0.7770 ha        1 7KW      0.167000
     36 H16         4.1740    6.6390   -0.1560 ha        1 7KW      0.167000
     37 H19         4.1580    2.4490   -2.9010 ha        1 7KW      0.168000
     38 H18         5.4470    4.4510   -3.6600 ha        1 7KW      0.168000
     39 H17         5.4480    6.5360   -2.2810 ha        1 7KW      0.168000
     40 H42         1.7570    4.1250    0.7550 hn        1 7KW      0.476800
@<TRIPOS>BOND
     1    1    2 ar  
     2    1    6 ar  
     3    1   25 1   
     4    2    3 ar  
     5    2   27 1   
     6    3    4 ar  
     7    3   29 1   
     8    4    5 ar  
     9    4    7 1   
    10    5    6 ar  
    11    5   28 1   
    12    6   26 1   
    13    7    8 1   
    14    7   11 2   
    15    8    9 2   
    16    8   12 1   
    17    9   10 1   
    18    9   31 1   
    19   10   11 1   
    20   10   30 1   
    21   12   13 ar  
    22   12   22 ar  
    23   13   14 ar  
    24   13   32 1   
    25   14   15 ar  
    26   14   33 1   
    27   15   16 ar  
    28   16   17 1   
    29   16   22 ar  
    30   17   18 1   
    31   17   34 1   
    32   17   40 1   
    33   18   19 ar  
    34   18   24 ar  
    35   19   20 ar  
    36   19   35 1   
    37   20   21 ar  
    38   20   37 1   
    39   21   23 ar  
    40   21   38 1   
    41   23   24 ar  
    42   23   39 1   
    43   24   36 1   
@<TRIPOS>SUBSTRUCTURE
     1 7KW         1 TEMP              0 ****  ****    0 ROOT
