@<TRIPOS>MOLECULE
7L0
   36    38     1     0     0
SMALL
bcc


@<TRIPOS>ATOM
      1 CAV         8.1110   -0.0880    0.6900 c3        1 7L0     -0.178100
      2 CAU         6.7790    0.1910    0.0330 c         1 7L0      0.671100
      3 OAW         6.6930    0.8100   -1.0340 o         1 7L0     -0.533100
      4 NAT         5.6650   -0.3070    0.7200 n         1 7L0     -0.470400
      5 CAN         4.3330   -0.1110    0.3490 cc        1 7L0      0.593900
      6 NAO         3.8710    0.9720   -0.4450 nc        1 7L0     -0.358300
      7 NAM         3.3070   -0.9730    0.7680 nd        1 7L0     -0.631100
      8 NAD         2.1980   -0.4300    0.2380 na        1 7L0      0.177000
      9 CAC         0.8930   -0.8640    0.3340 cd        1 7L0     -0.016300
     10 CAE         2.5280    0.7600   -0.5150 cd        1 7L0     -0.004300
     11 CAF         1.4750    1.4790   -1.1630 cd        1 7L0     -0.108000
     12 CAG         0.1910    1.0230   -1.0500 cc        1 7L0     -0.088000
     13 CAB        -0.1170   -0.1560   -0.3020 cc        1 7L0     -0.099000
     14 CAA        -1.4930   -0.6180   -0.2050 ca        1 7L0     -0.165300
     15 CAL        -2.5570    0.2790   -0.0540 ca        1 7L0      0.025000
     16 CAH        -1.8030   -1.9990   -0.2600 ca        1 7L0      0.460200
     17 NAI        -3.0540   -2.4850   -0.1590 nb        1 7L0     -0.672000
     18 CAJ        -4.0550   -1.6010   -0.0090 ca        1 7L0      0.505200
     19 CAK        -3.8700   -0.2010    0.0370 ca        1 7L0     -0.499800
     20 SAP        -5.1700    0.8400    0.2430 sy        1 7L0      1.404300
     21 CAQ        -5.6560    1.0150   -1.3670 c3        1 7L0     -0.362300
     22 OAS        -6.1850    0.1920    0.9580 o         1 7L0     -0.652800
     23 OAR        -4.7100    2.0750    0.7190 o         1 7L0     -0.652800
     24 HAV1        8.1530    0.3760    1.7050 hc        1 7L0      0.071367
     25 HAV2        8.2860   -1.1880    0.7810 hc        1 7L0      0.071367
     26 HAV3        8.9170    0.3550    0.0550 hc        1 7L0      0.071367
     27 HAC         0.7050   -1.7730    0.9340 h4        1 7L0      0.182000
     28 HAF         1.7410    2.3800   -1.7350 ha        1 7L0      0.175000
     29 HAG        -0.6340    1.5600   -1.5450 ha        1 7L0      0.148000
     30 HAL        -2.3670    1.3660    0.0140 ha        1 7L0      0.169000
     31 HAH        -1.0030   -2.7520   -0.3940 h4        1 7L0      0.033100
     32 HAJ        -5.0710   -2.0340    0.0970 h4        1 7L0      0.049100
     33 HAQ1       -5.9060    0.0450   -1.8630 h1        1 7L0      0.116700
     34 HAQ2       -6.5780    1.6470   -1.4420 h1        1 7L0      0.116700
     35 HAQ3       -4.8880    1.5120   -2.0090 h1        1 7L0      0.116700
     36 HAT         5.8200   -0.9380    1.4750 hn        1 7L0      0.334500
@<TRIPOS>BOND
     1    1    2 1   
     2    1   24 1   
     3    1   25 1   
     4    1   26 1   
     5    2    3 2   
     6    2    4 1   
     7    4    5 1   
     8    4   36 1   
     9    5    6 1   
    10    5    7 2   
    11    6   10 2   
    12    7    8 1   
    13    8    9 1   
    14    8   10 1   
    15    9   13 2   
    16    9   27 1   
    17   10   11 1   
    18   11   12 2   
    19   11   28 1   
    20   12   13 1   
    21   12   29 1   
    22   13   14 1   
    23   14   15 ar  
    24   14   16 ar  
    25   15   19 ar  
    26   15   30 1   
    27   16   17 ar  
    28   16   31 1   
    29   17   18 ar  
    30   18   19 ar  
    31   18   32 1   
    32   19   20 1   
    33   20   21 1   
    34   20   22 2   
    35   20   23 2   
    36   21   33 1   
    37   21   34 1   
    38   21   35 1   
@<TRIPOS>SUBSTRUCTURE
     1 7L0         1 TEMP              0 ****  ****    0 ROOT
