@<TRIPOS>MOLECULE
7L0
   36    32     1     0     0
SMALL
bcc


@<TRIPOS>ATOM
      1 CAV        -3.7930   -2.9940    4.5630 c3        1 7L0     -0.246000
      2 CAU        -2.2820   -2.7790    4.5780 c2        1 7L0      0.314000
      3 OAW        -1.6120   -3.2280    5.4920 o         1 7L0     -0.292000
      4 NAT        -1.6480   -2.0890    3.4990 n         1 7L0     -0.309000
      5 CAN        -0.2250   -1.9240    3.4920 c2        1 7L0      0.080000
      6 NAO         0.8520   -1.1660    3.8150 n2        1 7L0     -0.139000
      7 NAM        -0.4270   -1.8170    2.1580 n2        1 7L0     -0.166000
      8 NAD         0.5310   -0.9870    1.6510 n2        1 7L0     -0.050000
      9 CAC         0.7290   -0.4730    0.3780 c1        1 7L0      0.009000
     10 CAE         1.3180   -0.5870    2.6730 c1        1 7L0      0.020000
     11 CAF         2.3440    0.3550    2.4460 c1        1 7L0     -0.099000
     12 CAG         2.5410    0.8640    1.1890 c1        1 7L0     -0.099000
     13 CAB         1.7400    0.4570    0.1530 c1        1 7L0     -0.100000
     14 CAA         1.0270    1.2760   -0.9250 c2        1 7L0     -0.099000
     15 CAL         1.3980    1.1510   -2.2380 c2        1 7L0      0.019000
     16 CAH        -0.0550    2.0810   -0.5830 c1        1 7L0      0.001000
     17 NAI        -0.7470    2.7470   -1.5560 n1        1 7L0     -0.147000
     18 CAJ        -0.3770    2.6230   -2.8670 c1        1 7L0      0.041000
     19 CAK         0.7040    1.8190   -3.2120 c1        1 7L0     -0.878000
     20 SAP         1.2470    1.7340   -4.9120 s4        1 7L0      2.084800
     21 CAQ         0.1470    0.6950   -5.8620 c2        1 7L0     -0.941000
     22 OAS         1.3550    3.0480   -5.4920 o         1 7L0     -0.540400
     23 OAR         2.6090    1.2760   -5.0040 o         1 7L0     -0.540400
     24 HAV1       -4.0300   -3.7040    5.1990 hc        1 7L0      0.110667
     25 HAV2       -4.2450   -2.1600    4.8190 hc        1 7L0      0.110667
     26 HAV3       -4.0780   -3.2570    3.6600 hc        1 7L0      0.110667
     27 HAC         0.1570   -0.7640   -0.3630 ha        1 7L0      0.180000
     28 HAF         2.9170    0.6470    3.1890 ha        1 7L0      0.162500
     29 HAG         3.2540    1.5200    1.0310 ha        1 7L0      0.162500
     30 HAL         2.1610    0.5830   -2.4800 ha        1 7L0      0.167000
     31 HAH        -0.3210    2.1710    0.3560 ha        1 7L0      0.172000
     32 HAJ        -0.8750    3.1010   -3.5640 ha        1 7L0      0.185000
     33 HAQ1       -0.7590    1.0720   -5.8420 ha        1 7L0      0.155667
     34 HAQ2        0.1340   -0.2080   -5.4750 ha        1 7L0      0.155667
     35 HAQ3        0.4620    0.6480   -6.7920 ha        1 7L0      0.155667
     36 HAT        -2.1540   -1.7300    2.8250 hn        1 7L0      0.248000
@<TRIPOS>BOND
     1    1    2 1   
     2    1   24 1   
     3    1   25 1   
     4    1   26 1   
     5    2    3 1   
     6    2    4 1   
     7    4    5 1   
     8    4   36 1   
     9    5    6 1   
    10    5    7 1   
    11    6   10 1   
    12    7    8 1   
    13    8   10 1   
    14    9   13 1   
    15    9   27 1   
    16   11   12 1   
    17   11   28 1   
    18   12   29 1   
    19   13   14 1   
    20   14   15 1   
    21   14   16 1   
    22   15   19 1   
    23   15   30 1   
    24   16   31 1   
    25   17   18 1   
    26   18   32 1   
    27   19   20 1   
    28   20   22 1   
    29   20   23 1   
    30   21   33 1   
    31   21   34 1   
    32   21   35 1   
@<TRIPOS>SUBSTRUCTURE
     1 7L0         1 TEMP              0 ****  ****    0 ROOT
