@<TRIPOS>MOLECULE
7L0
   37    39     1     0     0
SMALL
bcc


@<TRIPOS>ATOM
      1 CAV         0.9190   -0.0880    0.6650 c3        1 7L0     -0.184100
      2 CAU         1.3950   -0.9470   -0.4500 c         1 7L0      0.580100
      3 OAW         1.3910   -2.1570   -0.5670 o         1 7L0     -0.387100
      4 NAT         1.9610   -0.1940   -1.6690 n4        1 7L0     -0.597800
      5 CAN         3.4020   -0.0010   -1.5360 cc        1 7L0      0.517200
      6 NAO         3.9770    0.5870   -0.3960 nc        1 7L0     -0.361300
      7 NAM         4.3170   -0.3810   -2.5190 nd        1 7L0     -0.513100
      8 NAD         5.4920   -0.0270   -1.9970 na        1 7L0      0.206000
      9 CAC         6.7620   -0.1580   -2.5480 cd        1 7L0     -0.053300
     10 CAE         5.3150    0.5710   -0.6940 cd        1 7L0      0.007700
     11 CAF         6.4620    1.0210    0.0300 cd        1 7L0     -0.097000
     12 CAG         7.6990    0.8740   -0.5370 cc        1 7L0     -0.066000
     13 CAB         7.8630    0.2820   -1.8310 cc        1 7L0     -0.009000
     14 CAA         9.1930    0.1510   -2.4060 ca        1 7L0     -0.221300
     15 CAL        10.1480    1.1660   -2.2670 ca        1 7L0      0.038000
     16 CAH         9.5620   -1.0040   -3.1400 ca        1 7L0      0.475200
     17 NAI        10.7640   -1.1580   -3.7190 nb        1 7L0     -0.661000
     18 CAJ        11.6570   -0.1600   -3.5850 ca        1 7L0      0.528200
     19 CAK        11.4090    1.0230   -2.8560 ca        1 7L0     -0.477800
     20 SAP        12.5570    2.2670   -2.7500 sy        1 7L0      1.401300
     21 CAQ        13.6260    1.5770   -1.6490 c3        1 7L0     -0.374300
     22 OAS        13.1820    2.4140   -3.9880 o         1 7L0     -0.643800
     23 OAR        11.9300    3.3770   -2.1710 o         1 7L0     -0.643800
     24 HAV1        0.4280   -0.7480    1.4300 hc        1 7L0      0.121367
     25 HAV2        1.7820    0.4420    1.1500 hc        1 7L0      0.121367
     26 HAV3        0.1770    0.6710    0.3100 hc        1 7L0      0.121367
     27 HAC         6.8300   -0.6110   -3.5560 h4        1 7L0      0.207000
     28 HAF         6.3090    1.4730    1.0230 ha        1 7L0      0.193000
     29 HAG         8.6010    1.2110    0.0040 ha        1 7L0      0.178000
     30 HAL         9.9090    2.0940   -1.7130 ha        1 7L0      0.174000
     31 HAH         8.8580   -1.8490   -3.2630 h4        1 7L0      0.032100
     32 HAJ        12.6270   -0.3100   -4.1050 h4        1 7L0      0.057100
     33 HAQ1       13.9900    0.5620   -1.9480 h1        1 7L0      0.124700
     34 HAQ2       14.5500    2.2050   -1.5340 h1        1 7L0      0.124700
     35 HAQ3       13.2030    1.4710   -0.6200 h1        1 7L0      0.124700
     36 HAT         1.7750   -0.7360   -2.5260 hn        1 7L0      0.476800
     37 HAT2        1.5220    0.7320   -1.7460 hn        1 7L0      0.476800
@<TRIPOS>BOND
     1    1    2 1   
     2    1   24 1   
     3    1   25 1   
     4    1   26 1   
     5    2    3 2   
     6    2    4 1   
     7    4    5 1   
     8    4   36 1   
     9    4   37 1   
    10    5    6 1   
    11    5    7 2   
    12    6   10 2   
    13    7    8 1   
    14    8    9 1   
    15    8   10 1   
    16    9   13 2   
    17    9   27 1   
    18   10   11 1   
    19   11   12 2   
    20   11   28 1   
    21   12   13 1   
    22   12   29 1   
    23   13   14 1   
    24   14   15 ar  
    25   14   16 ar  
    26   15   19 ar  
    27   15   30 1   
    28   16   17 ar  
    29   16   31 1   
    30   17   18 ar  
    31   18   19 ar  
    32   18   32 1   
    33   19   20 1   
    34   20   21 1   
    35   20   22 2   
    36   20   23 2   
    37   21   33 1   
    38   21   34 1   
    39   21   35 1   
@<TRIPOS>SUBSTRUCTURE
     1 7L0         1 TEMP              0 ****  ****    0 ROOT
