@<TRIPOS>MOLECULE
7L0
   36    38     1     0     0
SMALL
bcc


@<TRIPOS>ATOM
      1 CAV        -0.0930   -0.3630   -0.1930 c3        1 7L0     -0.178100
      2 CAU         1.3900   -0.3370    0.0990 c         1 7L0      0.671100
      3 OAW         1.8360   -0.5000    1.2410 o         1 7L0     -0.533100
      4 NAT         2.2090   -0.1200   -1.0180 ns        1 7L0     -0.470400
      5 CAN         3.5980    0.0170   -0.9860 cc        1 7L0      0.593900
      6 NAO         4.3380    0.4410    0.1500 nc        1 7L0     -0.358300
      7 NAM         4.3980   -0.2260   -2.1140 nd        1 7L0     -0.631100
      8 NAD         5.6420    0.0460   -1.6880 na        1 7L0      0.177000
      9 CAC         6.8290   -0.0200   -2.3870 cd        1 7L0     -0.016300
     10 CAE         5.6240    0.4500   -0.2990 cd        1 7L0     -0.004300
     11 CAF         6.8610    0.7770    0.3400 cd        1 7L0     -0.108000
     12 CAG         8.0210    0.7010   -0.3800 cc        1 7L0     -0.088000
     13 CAB         8.0210    0.2980   -1.7510 cc        1 7L0     -0.099000
     14 CAA         9.2730    0.2220   -2.4880 ca        1 7L0     -0.165300
     15 CAL        10.2810    1.1790   -2.3190 ca        1 7L0      0.025000
     16 CAH         9.5140   -0.8290   -3.4070 ca        1 7L0      0.460200
     17 NAI        10.6450   -0.9400   -4.1280 nb        1 7L0     -0.672000
     18 CAJ        11.5930   -0.0050   -3.9490 ca        1 7L0      0.505200
     19 CAK        11.4750    1.0750   -3.0460 ca        1 7L0     -0.499800
     20 SAP        12.6950    2.2140   -2.8890 sy        1 7L0      1.404300
     21 CAQ        13.6680    1.4380   -1.7440 c3        1 7L0     -0.362300
     22 OAS        13.4030    2.3170   -4.0930 o         1 7L0     -0.652800
     23 OAR        12.1730    3.3870   -2.3280 o         1 7L0     -0.652800
     24 HAV1       -0.4250    0.6130   -0.6220 hc        1 7L0      0.071367
     25 HAV2       -0.6370   -0.5400    0.7670 hc        1 7L0      0.071367
     26 HAV3       -0.3420   -1.1830   -0.9070 hc        1 7L0      0.071367
     27 HAC         6.7740   -0.3240   -3.4480 h4        1 7L0      0.182000
     28 HAF         6.8320    1.0790    1.3970 ha        1 7L0      0.175000
     29 HAG         8.9850    0.9440    0.0950 ha        1 7L0      0.148000
     30 HAL        10.1340    2.0300   -1.6290 ha        1 7L0      0.169000
     31 HAH         8.7600   -1.6220   -3.5690 h4        1 7L0      0.033100
     32 HAJ        12.5030   -0.1110   -4.5760 h4        1 7L0      0.049100
     33 HAQ1       14.5970    2.0300   -1.5390 h1        1 7L0      0.116700
     34 HAQ2       14.0120    0.4260   -2.0680 h1        1 7L0      0.116700
     35 HAQ3       13.1640    1.3030   -0.7560 h1        1 7L0      0.116700
     36 HAT         1.7940   -0.1690   -1.9220 hn        1 7L0      0.334500
@<TRIPOS>BOND
     1    1    2 1   
     2    1   24 1   
     3    1   25 1   
     4    1   26 1   
     5    2    3 2   
     6    2    4 1   
     7    4    5 1   
     8    4   36 1   
     9    5    6 1   
    10    5    7 2   
    11    6   10 2   
    12    7    8 1   
    13    8    9 1   
    14    8   10 1   
    15    9   13 2   
    16    9   27 1   
    17   10   11 1   
    18   11   12 2   
    19   11   28 1   
    20   12   13 1   
    21   12   29 1   
    22   13   14 1   
    23   14   15 ar  
    24   14   16 ar  
    25   15   19 ar  
    26   15   30 1   
    27   16   17 ar  
    28   16   31 1   
    29   17   18 ar  
    30   18   19 ar  
    31   18   32 1   
    32   19   20 1   
    33   20   21 1   
    34   20   22 2   
    35   20   23 2   
    36   21   33 1   
    37   21   34 1   
    38   21   35 1   
@<TRIPOS>SUBSTRUCTURE
     1 7L0         1 TEMP              0 ****  ****    0 ROOT
