@<TRIPOS>MOLECULE
7L0
   36    38     1     0     0
SMALL
bcc


@<TRIPOS>ATOM
      1 CAV        -0.0920   -0.3600   -0.1850 c3        1 7L0     -0.178100
      2 CAU         1.3920   -0.3400    0.1030 c         1 7L0      0.671100
      3 OAW         1.8400   -0.5160    1.2430 o         1 7L0     -0.533100
      4 NAT         2.2090   -0.1140   -1.0130 n         1 7L0     -0.470400
      5 CAN         3.5980    0.0200   -0.9830 cc        1 7L0      0.593900
      6 NAO         4.3420    0.4320    0.1550 nc        1 7L0     -0.358300
      7 NAM         4.3960   -0.2150   -2.1140 nd        1 7L0     -0.631100
      8 NAD         5.6410    0.0510   -1.6880 na        1 7L0      0.177000
      9 CAC         6.8260   -0.0120   -2.3900 cd        1 7L0     -0.016300
     10 CAE         5.6260    0.4430   -0.2960 cd        1 7L0     -0.004300
     11 CAF         6.8650    0.7610    0.3440 cd        1 7L0     -0.108000
     12 CAG         8.0240    0.6890   -0.3790 cc        1 7L0     -0.088000
     13 CAB         8.0200    0.2990   -1.7540 cc        1 7L0     -0.099000
     14 CAA         9.2710    0.2260   -2.4940 ca        1 7L0     -0.165300
     15 CAL        10.2810    1.1790   -2.3180 ca        1 7L0      0.025000
     16 CAH         9.5080   -0.8170   -3.4220 ca        1 7L0      0.460200
     17 NAI        10.6370   -0.9250   -4.1460 nb        1 7L0     -0.672000
     18 CAJ        11.5880    0.0070   -3.9610 ca        1 7L0      0.505200
     19 CAK        11.4730    1.0790   -3.0480 ca        1 7L0     -0.499800
     20 SAP        12.6970    2.2150   -2.8840 sy        1 7L0      1.404300
     21 CAQ        13.6700    1.4270   -1.7460 c3        1 7L0     -0.362300
     22 OAS        13.4020    2.3260   -4.0880 o         1 7L0     -0.652800
     23 OAR        12.1780    3.3830   -2.3110 o         1 7L0     -0.652800
     24 HAV1       -0.4230    0.6200   -0.6050 hc        1 7L0      0.071367
     25 HAV2       -0.3430   -1.1740   -0.9070 hc        1 7L0      0.071367
     26 HAV3       -0.6340   -0.5460    0.7740 hc        1 7L0      0.071367
     27 HAC         6.7690   -0.3060   -3.4530 h4        1 7L0      0.182000
     28 HAF         6.8390    1.0540    1.4030 ha        1 7L0      0.175000
     29 HAG         8.9890    0.9260    0.0960 ha        1 7L0      0.148000
     30 HAL        10.1370    2.0250   -1.6210 ha        1 7L0      0.169000
     31 HAH         8.7520   -1.6070   -3.5900 h4        1 7L0      0.033100
     32 HAJ        12.4960   -0.0960   -4.5900 h4        1 7L0      0.049100
     33 HAQ1       14.0060    0.4140   -2.0770 h1        1 7L0      0.116700
     34 HAQ2       14.6030    2.0120   -1.5430 h1        1 7L0      0.116700
     35 HAQ3       13.1690    1.2900   -0.7570 h1        1 7L0      0.116700
     36 HAT         1.7920   -0.1540   -1.9170 hn        1 7L0      0.334500
@<TRIPOS>BOND
     1    1    2 1   
     2    1   24 1   
     3    1   25 1   
     4    1   26 1   
     5    2    3 2   
     6    2    4 1   
     7    4    5 1   
     8    4   36 1   
     9    5    6 1   
    10    5    7 2   
    11    6   10 2   
    12    7    8 1   
    13    8    9 1   
    14    8   10 1   
    15    9   13 2   
    16    9   27 1   
    17   10   11 1   
    18   11   12 2   
    19   11   28 1   
    20   12   13 1   
    21   12   29 1   
    22   13   14 1   
    23   14   15 ar  
    24   14   16 ar  
    25   15   19 ar  
    26   15   30 1   
    27   16   17 ar  
    28   16   31 1   
    29   17   18 ar  
    30   18   19 ar  
    31   18   32 1   
    32   19   20 1   
    33   20   21 1   
    34   20   22 2   
    35   20   23 2   
    36   21   33 1   
    37   21   34 1   
    38   21   35 1   
@<TRIPOS>SUBSTRUCTURE
     1 7L0         1 TEMP              0 ****  ****    0 ROOT
