@<TRIPOS>MOLECULE
7L4
   28    21     1     0     0
SMALL
bcc


@<TRIPOS>ATOM
      1 C1         -2.5900    0.0350   -3.8480 c1        1 7L4     -0.059000
      2 C2         -2.2770    1.2230   -3.2060 c1        1 7L4     -0.059000
      3 C3         -1.6160    1.1990   -1.9880 c1        1 7L4     -0.059000
      4 C4         -1.2690   -0.0130   -1.4120 c1        1 7L4      0.017000
      5 C5         -1.5830   -1.2010   -2.0540 c1        1 7L4     -0.139500
      6 C6         -2.2440   -1.1760   -3.2720 c1        1 7L4     -0.059000
      7 C7         -0.6430   -0.0380   -0.1750 c1        1 7L4      0.017000
      8 C8         -1.1700   -0.0130    1.1130 c1        1 7L4     -0.139500
      9 C9         -0.3320    0.0210    2.1940 c1        1 7L4      0.159600
     10 C10         1.0420    0.0310    2.0050 cg        1 7L4     -0.100000
     11 C11         1.9070    0.0630    3.1160 c1        1 7L4     -0.059000
     12 C12         3.2830    0.0690    2.9250 c1        1 7L4     -0.059000
     13 C13         3.8070    0.0440    1.6360 c1        1 7L4     -0.059000
     14 C14         2.9550    0.0120    0.5390 c1        1 7L4     -0.059000
     15 C15         1.5590    0.0060    0.7320 cg        1 7L4      0.355800
     16 N16         0.7090   -0.0290   -0.3610 n1        1 7L4     -0.476800
     17 O17        -0.8680    0.1050    3.4920 oh        1 7L4     -0.473600
     18 H1         -3.0560    0.0520   -4.7060 ha        1 7L4      0.082375
     19 H2         -2.5210    2.0770   -3.6120 ha        1 7L4      0.082375
     20 H6         -2.4640   -2.0130   -3.7240 ha        1 7L4      0.082375
     21 H3         -1.3950    2.0350   -1.5360 ha        1 7L4      0.082375
     22 H5         -1.3390   -2.0540   -1.6480 ha        1 7L4      0.083500
     23 H8         -2.1370    0.0100    1.2440 ha        1 7L4      0.083500
     24 H17        -1.2740   -0.6600    3.6950 ho        1 7L4      0.426000
     25 H11         1.5400    0.0810    4.0200 ha        1 7L4      0.082375
     26 H12         3.8820    0.0910    3.6950 ha        1 7L4      0.082375
     27 H13         4.7740    0.0480    1.5020 ha        1 7L4      0.082375
     28 H14         3.3230   -0.0060   -0.3650 ha        1 7L4      0.082375
@<TRIPOS>BOND
     1    1    6 3   
     2    1   18 1   
     3    2    3 3   
     4    2   19 1   
     5    3   21 1   
     6    4    5 3   
     7    5   22 1   
     8    6   20 1   
     9    7    8 3   
    10    8   23 1   
    11    9   10 3   
    12    9   17 1   
    13   10   15 1   
    14   11   12 3   
    15   11   25 1   
    16   12   26 1   
    17   13   14 3   
    18   13   27 1   
    19   14   28 1   
    20   15   16 3   
    21   17   24 1   
@<TRIPOS>SUBSTRUCTURE
     1 7L4         1 TEMP              0 ****  ****    0 ROOT
