@<TRIPOS>MOLECULE
7L4
   28    30     1     0     0
SMALL
bcc


@<TRIPOS>ATOM
      1 C1         -0.0650    0.0600    0.0060 ca        1 7L4     -0.119000
      2 C2          1.2100   -0.5040    0.0220 ca        1 7L4     -0.136500
      3 C3          1.9480   -0.5380    1.2060 ca        1 7L4     -0.101000
      4 C4          1.4040   -0.0120    2.3840 cp        1 7L4     -0.152500
      5 C5          0.1240    0.5590    2.3630 ca        1 7L4     -0.101000
      6 C6         -0.6050    0.5940    1.1760 ca        1 7L4     -0.136500
      7 C7          2.1650   -0.0560    3.6490 cp        1 7L4      0.514800
      8 C8          1.4460   -0.4200    4.8350 ca        1 7L4     -0.346300
      9 C9          2.1320   -0.4700    6.0320 ca        1 7L4      0.176100
     10 C10         3.5300   -0.1590    6.0750 ca        1 7L4     -0.165300
     11 C11         4.2870   -0.1890    7.2720 ca        1 7L4     -0.086000
     12 C12         5.6260    0.1180    7.2510 ca        1 7L4     -0.141000
     13 C13         6.2560    0.4650    6.0340 ca        1 7L4     -0.112000
     14 C14         5.5510    0.5030    4.8560 ca        1 7L4     -0.177300
     15 C15         4.1530    0.1890    4.8370 ca        1 7L4      0.423600
     16 N16         3.4650    0.2350    3.6410 nb        1 7L4     -0.677000
     17 O17         1.5450   -0.8110    7.2240 oh        1 7L4     -0.490100
     18 H1         -0.6440    0.0870   -0.9290 ha        1 7L4      0.132000
     19 H2          1.6390   -0.9210   -0.9000 ha        1 7L4      0.133500
     20 H6         -1.6070    1.0460    1.1640 ha        1 7L4      0.133500
     21 H3          2.9580   -0.9760    1.2120 ha        1 7L4      0.141500
     22 H5         -0.3000    0.9920    3.2810 ha        1 7L4      0.141500
     23 H8          0.3770   -0.6610    4.7700 ha        1 7L4      0.148000
     24 H17         0.6110   -1.0050    7.0540 ho        1 7L4      0.426000
     25 H11         3.7740   -0.4620    8.2080 ha        1 7L4      0.149000
     26 H12         6.2200    0.0970    8.1770 ha        1 7L4      0.136000
     27 H13         7.3300    0.7080    6.0420 ha        1 7L4      0.135000
     28 H14         6.0470    0.7750    3.9120 ha        1 7L4      0.151000
@<TRIPOS>BOND
     1    1    2 ar  
     2    1    6 ar  
     3    1   18 1   
     4    2    3 ar  
     5    2   19 1   
     6    3    4 ar  
     7    3   21 1   
     8    4    5 ar  
     9    4    7 1   
    10    5    6 ar  
    11    5   22 1   
    12    6   20 1   
    13    7    8 ar  
    14    7   16 ar  
    15    8    9 ar  
    16    8   23 1   
    17    9   10 ar  
    18    9   17 1   
    19   10   11 ar  
    20   10   15 ar  
    21   11   12 ar  
    22   11   25 1   
    23   12   13 ar  
    24   12   26 1   
    25   13   14 ar  
    26   13   27 1   
    27   14   15 ar  
    28   14   28 1   
    29   15   16 ar  
    30   17   24 1   
@<TRIPOS>SUBSTRUCTURE
     1 7L4         1 TEMP              0 ****  ****    0 ROOT
