@<TRIPOS>MOLECULE
7L4
   28    30     1     0     0
SMALL
bcc


@<TRIPOS>ATOM
      1 C1         -4.8740   -0.3620   -0.0750 ca        1 7L4     -0.118000
      2 C2         -4.0920   -1.3570    0.5090 ca        1 7L4     -0.137000
      3 C3         -2.7040   -1.2270    0.5500 ca        1 7L4     -0.099500
      4 C4         -2.0920   -0.0880    0.0100 cp        1 7L4     -0.153500
      5 C5         -2.8810    0.9080   -0.5810 ca        1 7L4     -0.099500
      6 C6         -4.2660    0.7690   -0.6220 ca        1 7L4     -0.137000
      7 C7         -0.6250    0.0740    0.0590 cp        1 7L4      0.510800
      8 C8         -0.1170    1.3740    0.3750 ca        1 7L4     -0.284300
      9 C9          1.2540    1.5550    0.4240 ca        1 7L4      0.166100
     10 C10         2.1360    0.4570    0.1620 ca        1 7L4     -0.201300
     11 C11         3.5500    0.5560    0.1860 ca        1 7L4     -0.116000
     12 C12         4.3350   -0.5400   -0.0730 ca        1 7L4     -0.127000
     13 C13         3.7400   -1.7880   -0.3690 ca        1 7L4     -0.118000
     14 C14         2.3760   -1.9250   -0.4040 ca        1 7L4     -0.167300
     15 C15         1.5240   -0.8010   -0.1380 ca        1 7L4      0.428600
     16 N16         0.1590   -0.9780   -0.1850 nb        1 7L4     -0.680000
     17 O17         1.6880    2.8200    0.7320 oh        1 7L4     -0.490100
     18 H1         -5.9680   -0.4690   -0.1070 ha        1 7L4      0.132000
     19 H2         -4.5680   -2.2520    0.9370 ha        1 7L4      0.133500
     20 H6         -4.8810    1.5520   -1.0890 ha        1 7L4      0.133500
     21 H3         -2.0900   -2.0200    1.0050 ha        1 7L4      0.142500
     22 H5         -2.4050    1.7970   -1.0210 ha        1 7L4      0.142500
     23 H8         -0.8030    2.2050    0.5840 ha        1 7L4      0.164000
     24 H17         2.6550    2.8240    0.7590 ho        1 7L4      0.425000
     25 H11         4.0290    1.5210    0.4130 ha        1 7L4      0.122000
     26 H12         5.4320   -0.4610   -0.0540 ha        1 7L4      0.136000
     27 H13         4.3900   -2.6530   -0.5740 ha        1 7L4      0.138000
     28 H14         1.9120   -2.8970   -0.6360 ha        1 7L4      0.154000
@<TRIPOS>BOND
     1    1    2 ar  
     2    1    6 ar  
     3    1   18 1   
     4    2    3 ar  
     5    2   19 1   
     6    3    4 ar  
     7    3   21 1   
     8    4    5 ar  
     9    4    7 1   
    10    5    6 ar  
    11    5   22 1   
    12    6   20 1   
    13    7    8 ar  
    14    7   16 ar  
    15    8    9 ar  
    16    8   23 1   
    17    9   10 ar  
    18    9   17 1   
    19   10   11 ar  
    20   10   15 ar  
    21   11   12 ar  
    22   11   25 1   
    23   12   13 ar  
    24   12   26 1   
    25   13   14 ar  
    26   13   27 1   
    27   14   15 ar  
    28   14   28 1   
    29   15   16 ar  
    30   17   24 1   
@<TRIPOS>SUBSTRUCTURE
     1 7L4         1 TEMP              0 ****  ****    0 ROOT
