@<TRIPOS>MOLECULE
7L5
   60    62     1     0     0
SMALL
bcc


@<TRIPOS>ATOM
      1 CAQ        -0.0110    0.4820   -0.3340 c3        1 7L5     -0.074900
      2 CAM         1.5120    0.3750   -0.3000 c3        1 7L5      0.163800
      3 NAT         2.0320    0.0490    1.0140 n7        1 7L5     -0.820200
      4 CAN         1.5410    0.9130    2.0690 c3        1 7L5      0.163800
      5 CAR         0.0180    1.0310    2.0910 c3        1 7L5     -0.074900
      6 CBC        -0.5150    1.4480    0.7290 c3        1 7L5     -0.064700
      7 CAP        -2.0350    1.4940    0.7140 c3        1 7L5     -0.076400
      8 CAL        -2.5770    2.6950    1.4590 c3        1 7L5     -0.076400
      9 CAO        -4.0940    2.7230    1.4020 c3        1 7L5     -0.051100
     10 CAV        -4.6450    3.9170    2.0990 ca        1 7L5      0.008700
     11 CAK        -4.5140    5.1880    1.5390 ca        1 7L5     -0.160500
     12 CAY        -5.0230    6.3140    2.1970 ca        1 7L5      0.132900
     13 ClI        -4.8480    7.7740    1.3500 cl        1 7L5     -0.050400
     14 CAJ        -5.3250    3.7880    3.3120 ca        1 7L5     -0.160500
     15 CAX        -5.8270    4.9180    3.9570 ca        1 7L5      0.132900
     16 ClH        -6.7010    4.6220    5.3880 cl        1 7L5     -0.050400
     17 CBA        -5.6500    6.2280    3.4570 ca        1 7L5     -0.336500
     18 SBF        -6.1150    7.5810    4.4070 sy        1 7L5      1.499200
     19 OAD        -5.7070    7.3680    5.7410 o         1 7L5     -0.638300
     20 OAE        -5.6360    8.7850    3.8740 o         1 7L5     -0.638300
     21 NBD        -7.7660    7.5460    4.3470 nh        1 7L5     -0.674900
     22 CBB        -8.5850    7.4460    5.5590 c3        1 7L5      0.684100
     23 FAG        -9.3130    8.5910    5.8330 f         1 7L5     -0.236800
     24 FAF        -9.5900    6.5000    5.4910 f         1 7L5     -0.236800
     25 CAZ        -8.4080    7.7840    3.1350 cc        1 7L5     -0.126700
     26 CAW        -8.6440    9.0470    2.5200 cd        1 7L5     -0.039600
     27 CAB        -8.2520   10.3780    3.0100 c3        1 7L5     -0.058800
     28 NBE        -9.3220    8.7730    1.3300 na        1 7L5      0.099400
     29 CAC        -9.7310    9.7820    0.3820 c3        1 7L5      0.038600
     30 NAS        -9.5480    7.4570    1.1600 nd        1 7L5     -0.514800
     31 CAU        -9.0220    6.8100    2.2340 cc        1 7L5      0.351600
     32 CAA        -9.0910    5.3550    2.4600 c3        1 7L5     -0.128400
     33 HAQ1       -0.4680   -0.5280   -0.1670 hc        1 7L5      0.047450
     34 HAQ2       -0.3200    0.8350   -1.3510 hc        1 7L5      0.047450
     35 HAM1        1.9390    1.3450   -0.6950 h1        1 7L5      0.027200
     36 HAM2        1.8360   -0.4470   -0.9990 h1        1 7L5      0.027200
     37 HBC        -0.1200    2.4760    0.4900 hc        1 7L5      0.047700
     38 HAT         3.0350    0.0660    0.9970 hn        1 7L5      0.362800
     39 HAN1        1.8870    0.4730    3.0470 h1        1 7L5      0.027200
     40 HAN2        1.9720    1.9560    1.9950 h1        1 7L5      0.027200
     41 HAR1       -0.2670    1.7880    2.8650 hc        1 7L5      0.047450
     42 HAR2       -0.4330    0.0480    2.3860 hc        1 7L5      0.047450
     43 HAP1       -2.4430    0.5520    1.1670 hc        1 7L5      0.043200
     44 HAP2       -2.3900    1.5300   -0.3510 hc        1 7L5      0.043200
     45 HAL1       -2.1680    3.6380    1.0090 hc        1 7L5      0.049200
     46 HAL2       -2.2420    2.6630    2.5290 hc        1 7L5      0.049200
     47 HAO1       -4.4280    2.7390    0.3290 hc        1 7L5      0.059700
     48 HAO2       -4.5010    1.7840    1.8640 hc        1 7L5      0.059700
     49 HAK        -4.0090    5.3020    0.5660 ha        1 7L5      0.159500
     50 HAJ        -5.4690    2.7890    3.7570 ha        1 7L5      0.159500
     51 HBB        -7.8910    7.2090    6.4340 h3        1 7L5      0.119700
     52 HAB1       -8.6910   10.5340    4.0290 hc        1 7L5      0.071033
     53 HAB2       -7.1330   10.4280    3.0950 hc        1 7L5      0.071033
     54 HAB3       -8.6000   11.2000    2.3380 hc        1 7L5      0.071033
     55 HAC1      -10.2420    9.3100   -0.4980 h1        1 7L5      0.061367
     56 HAC2       -8.8260   10.3450    0.0280 h1        1 7L5      0.061367
     57 HAC3      -10.4390   10.4940    0.8840 h1        1 7L5      0.061367
     58 HAA1       -9.6560    5.1590    3.4080 hc        1 7L5      0.055033
     59 HAA2       -9.5980    4.8220    1.6200 hc        1 7L5      0.055033
     60 HAA3       -8.0550    4.9440    2.5740 hc        1 7L5      0.055033
@<TRIPOS>BOND
     1    1    2 1   
     2    1    6 1   
     3    1   33 1   
     4    1   34 1   
     5    2    3 1   
     6    2   35 1   
     7    2   36 1   
     8    3    4 1   
     9    3   38 1   
    10    4    5 1   
    11    4   39 1   
    12    4   40 1   
    13    5    6 1   
    14    5   41 1   
    15    5   42 1   
    16    6    7 1   
    17    6   37 1   
    18    7    8 1   
    19    7   43 1   
    20    7   44 1   
    21    8    9 1   
    22    8   45 1   
    23    8   46 1   
    24    9   10 1   
    25    9   47 1   
    26    9   48 1   
    27   10   11 ar  
    28   10   14 ar  
    29   11   12 ar  
    30   11   49 1   
    31   12   13 1   
    32   12   17 ar  
    33   14   15 ar  
    34   14   50 1   
    35   15   16 1   
    36   15   17 ar  
    37   17   18 1   
    38   18   19 2   
    39   18   20 2   
    40   18   21 1   
    41   21   22 1   
    42   21   25 1   
    43   22   23 1   
    44   22   24 1   
    45   22   51 1   
    46   25   26 2   
    47   25   31 1   
    48   26   27 1   
    49   26   28 1   
    50   27   52 1   
    51   27   53 1   
    52   27   54 1   
    53   28   29 1   
    54   28   30 1   
    55   29   55 1   
    56   29   56 1   
    57   29   57 1   
    58   30   31 2   
    59   31   32 1   
    60   32   58 1   
    61   32   59 1   
    62   32   60 1   
@<TRIPOS>SUBSTRUCTURE
     1 7L5         1 TEMP              0 ****  ****    0 ROOT
