@<TRIPOS>MOLECULE
7L5
   60    62     1     0     0
SMALL
bcc


@<TRIPOS>ATOM
      1 CAQ        -0.0090    0.4890   -0.3440 c3        1 7L5     -0.074900
      2 CAM         1.5150    0.3870   -0.3170 c3        1 7L5      0.163800
      3 NAT         2.0420    0.0690    0.9950 n3        1 7L5     -0.820200
      4 CAN         1.5540    0.9360    2.0490 c3        1 7L5      0.163800
      5 CAR         0.0310    1.0480    2.0780 c3        1 7L5     -0.074900
      6 CBC        -0.5110    1.4580    0.7170 c3        1 7L5     -0.064700
      7 CAP        -2.0310    1.4990    0.7090 c3        1 7L5     -0.076400
      8 CAL        -2.5730    2.7010    1.4520 c3        1 7L5     -0.076400
      9 CAO        -4.0900    2.7230    1.4030 c3        1 7L5     -0.051100
     10 CAV        -4.6420    3.9170    2.1000 ca        1 7L5      0.008700
     11 CAK        -4.5190    5.1870    1.5350 ca        1 7L5     -0.160500
     12 CAY        -5.0290    6.3130    2.1920 ca        1 7L5      0.132900
     13 CLI        -4.8640    7.7710    1.3400 cl        1 7L5     -0.050400
     14 CAJ        -5.3150    3.7890    3.3170 ca        1 7L5     -0.160500
     15 CAX        -5.8170    4.9200    3.9610 ca        1 7L5      0.132900
     16 CLH        -6.6810    4.6260    5.3980 cl        1 7L5     -0.050400
     17 CBA        -5.6470    6.2290    3.4560 ca        1 7L5     -0.336500
     18 SBF        -6.1120    7.5830    4.4050 sy        1 7L5      1.499200
     19 OAD        -5.6950    7.3770    5.7370 o         1 7L5     -0.638300
     20 OAE        -5.6410    8.7870    3.8650 o         1 7L5     -0.638300
     21 NBD        -7.7630    7.5430    4.3550 nh        1 7L5     -0.674900
     22 CBB        -8.5740    7.4440    5.5720 c3        1 7L5      0.684100
     23 FAG        -9.3040    8.5880    5.8470 f         1 7L5     -0.236800
     24 FAF        -9.5760    6.4940    5.5140 f         1 7L5     -0.236800
     25 CAZ        -8.4130    7.7740    3.1460 cc        1 7L5     -0.126700
     26 CAW        -8.6570    9.0340    2.5280 cd        1 7L5     -0.039600
     27 CAB        -8.2670   10.3670    3.0100 c3        1 7L5     -0.058800
     28 NBE        -9.3420    8.7530    1.3430 na        1 7L5      0.099400
     29 CAC        -9.7600    9.7570    0.3940 c3        1 7L5      0.038600
     30 NAS        -9.5640    7.4360    1.1800 nd        1 7L5     -0.514800
     31 CAU        -9.0300    6.7950    2.2530 cc        1 7L5      0.351600
     32 CAA        -9.0920    5.3400    2.4850 c3        1 7L5     -0.128400
     33 HAQ1       -0.4620   -0.5210   -0.1710 hc        1 7L5      0.047450
     34 HAQ2       -0.3240    0.8370   -1.3610 hc        1 7L5      0.047450
     35 HAM1        1.8380   -0.4360   -1.0140 h1        1 7L5      0.027200
     36 HAM2        1.9370    1.3570   -0.7180 h1        1 7L5      0.027200
     37 HBC        -0.1210    2.4870    0.4720 hc        1 7L5      0.047700
     38 HAT         3.0450    0.0890    0.9740 hn        1 7L5      0.362800
     39 HAN1        1.9800    1.9800    1.9680 h1        1 7L5      0.027200
     40 HAN2        1.9060    0.5010    3.0270 h1        1 7L5      0.027200
     41 HAR1       -0.4160    0.0660    2.3800 hc        1 7L5      0.047450
     42 HAR2       -0.2540    1.8080    2.8510 hc        1 7L5      0.047450
     43 HAP1       -2.3910    1.5300   -0.3540 hc        1 7L5      0.043200
     44 HAP2       -2.4330    0.5570    1.1670 hc        1 7L5      0.043200
     45 HAL1       -2.2330    2.6730    2.5210 hc        1 7L5      0.049200
     46 HAL2       -2.1700    3.6440    0.9980 hc        1 7L5      0.049200
     47 HAO1       -4.4300    2.7350    0.3320 hc        1 7L5      0.059700
     48 HAO2       -4.4930    1.7840    1.8700 hc        1 7L5      0.059700
     49 HAK        -4.0210    5.2990    0.5580 ha        1 7L5      0.159500
     50 HAJ        -5.4520    2.7920    3.7660 ha        1 7L5      0.159500
     51 HBB        -7.8740    7.2130    6.4440 h3        1 7L5      0.119700
     52 HAB1       -8.7000   10.5260    4.0320 hc        1 7L5      0.071033
     53 HAB2       -8.6220   11.1860    2.3380 hc        1 7L5      0.071033
     54 HAB3       -7.1470   10.4220    3.0890 hc        1 7L5      0.071033
     55 HAC1       -8.8590   10.3210    0.0330 h1        1 7L5      0.061367
     56 HAC2      -10.2760    9.2800   -0.4810 h1        1 7L5      0.061367
     57 HAC3      -10.4670   10.4680    0.8980 h1        1 7L5      0.061367
     58 HAA1       -9.6030    4.8020    1.6500 hc        1 7L5      0.055033
     59 HAA2       -9.6500    5.1450    3.4370 hc        1 7L5      0.055033
     60 HAA3       -8.0540    4.9330    2.5920 hc        1 7L5      0.055033
@<TRIPOS>BOND
     1    1    2 1   
     2    1    6 1   
     3    1   33 1   
     4    1   34 1   
     5    2    3 1   
     6    2   35 1   
     7    2   36 1   
     8    3    4 1   
     9    3   38 1   
    10    4    5 1   
    11    4   39 1   
    12    4   40 1   
    13    5    6 1   
    14    5   41 1   
    15    5   42 1   
    16    6    7 1   
    17    6   37 1   
    18    7    8 1   
    19    7   43 1   
    20    7   44 1   
    21    8    9 1   
    22    8   45 1   
    23    8   46 1   
    24    9   10 1   
    25    9   47 1   
    26    9   48 1   
    27   10   11 ar  
    28   10   14 ar  
    29   11   12 ar  
    30   11   49 1   
    31   12   13 1   
    32   12   17 ar  
    33   14   15 ar  
    34   14   50 1   
    35   15   16 1   
    36   15   17 ar  
    37   17   18 1   
    38   18   19 2   
    39   18   20 2   
    40   18   21 1   
    41   21   22 1   
    42   21   25 1   
    43   22   23 1   
    44   22   24 1   
    45   22   51 1   
    46   25   26 2   
    47   25   31 1   
    48   26   27 1   
    49   26   28 1   
    50   27   52 1   
    51   27   53 1   
    52   27   54 1   
    53   28   29 1   
    54   28   30 1   
    55   29   55 1   
    56   29   56 1   
    57   29   57 1   
    58   30   31 2   
    59   31   32 1   
    60   32   58 1   
    61   32   59 1   
    62   32   60 1   
@<TRIPOS>SUBSTRUCTURE
     1 7L5         1 TEMP              0 ****  ****    0 ROOT
