@<TRIPOS>MOLECULE
7LI
   48    50     1     0     0
SMALL
bcc


@<TRIPOS>ATOM
      1 C           4.3540    3.3170   -0.9310 c3        1 7LI     -0.111100
      2 N           1.2810   -0.8380   -0.1850 nh        1 7LI     -0.624000
      3 O           2.9830    1.4170   -0.3740 os        1 7LI     -0.341900
      4 S          -3.7190    0.9370   -0.2460 ss        1 7LI     -0.117200
      5 C1          3.9900    2.3120    0.1450 c3        1 7LI      0.139100
      6 N1          3.6270   -3.2520    1.4840 n3        1 7LI     -0.901800
      7 O1         -3.2130   -2.7500    0.6860 o         1 7LI     -0.575500
      8 C2          5.1760    1.4330    0.5030 c3        1 7LI     -0.111100
      9 N2         -4.9260   -1.3620   -0.0250 n         1 7LI     -0.614500
     10 O2         -6.3130    0.3590   -0.7290 o         1 7LI     -0.559500
     11 C3          1.6820    1.6390    0.0360 ca        1 7LI      0.099100
     12 C4          1.1910    2.9200    0.3120 ca        1 7LI     -0.173000
     13 C5         -0.1460    3.0890    0.6560 ca        1 7LI     -0.103000
     14 C6         -0.9960    1.9910    0.7120 ca        1 7LI     -0.137000
     15 C7         -0.5270    0.6990    0.4330 ca        1 7LI     -0.052800
     16 C8          0.8360    0.4940    0.0960 ca        1 7LI      0.106600
     17 C9          1.6370   -1.0290   -1.5890 c3        1 7LI      0.170800
     18 C10         2.0150   -2.4770   -1.8950 c3        1 7LI     -0.073400
     19 C11         3.0990   -2.9680   -0.9640 c3        1 7LI     -0.117400
     20 C12         2.6640   -2.7940    0.5010 c3        1 7LI      0.161500
     21 C13         2.3100   -1.3010    0.7400 c3        1 7LI      0.173800
     22 C14        -1.4380   -0.4330    0.5090 ce        1 7LI      0.048800
     23 C15        -2.7560   -0.3950    0.2460 cd        1 7LI     -0.153600
     24 C16        -3.5930   -1.6250    0.3400 c         1 7LI      0.709700
     25 C17        -5.1950   -0.0360   -0.3830 c         1 7LI      0.707100
     26 H           5.1590    3.9930   -0.5570 hc        1 7LI      0.048200
     27 HA          4.7180    2.7890   -1.8450 hc        1 7LI      0.048200
     28 HB          3.4650    3.9300   -1.2130 hc        1 7LI      0.048200
     29 H1          3.6140    2.8360    1.0660 h1        1 7LI      0.054700
     30 HN1         3.8340   -4.2200    1.3320 hn        1 7LI      0.346300
     31 HN1A        4.4770   -2.7260    1.4210 hn        1 7LI      0.346300
     32 H2          6.0330    2.0760    0.8140 hc        1 7LI      0.048200
     33 H2A         4.9090    0.7460    1.3410 hc        1 7LI      0.048200
     34 H2B         5.4810    0.8170   -0.3760 hc        1 7LI      0.048200
     35 HN2        -5.6210   -2.0710   -0.0300 hn        1 7LI      0.353500
     36 H4          1.8550    3.7950    0.2470 ha        1 7LI      0.144000
     37 H5         -0.5320    4.0960    0.8780 ha        1 7LI      0.141000
     38 H6         -2.0530    2.1390    0.9960 ha        1 7LI      0.150000
     39 H9          0.7410   -0.7440   -2.2080 h1        1 7LI      0.045200
     40 H9A         2.4950   -0.3570   -1.8880 h1        1 7LI      0.045200
     41 H10         1.1120   -3.1340   -1.8030 hc        1 7LI      0.050200
     42 H10A        2.3700   -2.5290   -2.9570 hc        1 7LI      0.050200
     43 H11         3.3120   -4.0490   -1.1720 hc        1 7LI      0.039700
     44 H11A        4.0450   -2.3940   -1.1480 hc        1 7LI      0.039700
     45 H12         1.7270   -3.4070    0.6610 h1        1 7LI      0.073700
     46 H13         3.2520   -0.6820    0.6550 h1        1 7LI      0.048200
     47 H13A        1.9050   -1.1850    1.7840 h1        1 7LI      0.048200
     48 H14        -0.9940   -1.4080    0.8040 ha        1 7LI      0.183000
@<TRIPOS>BOND
     1    1    5 1   
     2    1   26 1   
     3    1   27 1   
     4    1   28 1   
     5    2   16 1   
     6    2   17 1   
     7    2   21 1   
     8    3    5 1   
     9    3   11 1   
    10    4   23 1   
    11    4   25 1   
    12    5    8 1   
    13    5   29 1   
    14    6   20 1   
    15    6   30 1   
    16    6   31 1   
    17    7   24 2   
    18    8   32 1   
    19    8   33 1   
    20    8   34 1   
    21    9   24 1   
    22    9   25 1   
    23    9   35 1   
    24   10   25 2   
    25   11   12 ar  
    26   11   16 ar  
    27   12   13 ar  
    28   12   36 1   
    29   13   14 ar  
    30   13   37 1   
    31   14   15 ar  
    32   14   38 1   
    33   15   16 ar  
    34   15   22 1   
    35   17   18 1   
    36   17   39 1   
    37   17   40 1   
    38   18   19 1   
    39   18   41 1   
    40   18   42 1   
    41   19   20 1   
    42   19   43 1   
    43   19   44 1   
    44   20   21 1   
    45   20   45 1   
    46   21   46 1   
    47   21   47 1   
    48   22   23 2   
    49   22   48 1   
    50   23   24 1   
@<TRIPOS>SUBSTRUCTURE
     1 7LI         1 TEMP              0 ****  ****    0 ROOT
