@<TRIPOS>MOLECULE
7LI
   49    51     1     0     0
SMALL
bcc


@<TRIPOS>ATOM
      1 C          -0.0970    0.3280   -0.1910 c3        1 7LI     -0.113600
      2 N           3.1060    3.0580   -2.0560 nh        1 7LI     -0.606000
      3 O           2.2590    0.7950   -0.6230 os        1 7LI     -0.369900
      4 S           1.9340    2.5030   -7.2280 ss        1 7LI     -0.099200
      5 C1          1.3380   -0.0390    0.1180 c3        1 7LI      0.143100
      6 N1          6.0490    4.1530    0.0400 n4        1 7LI     -0.839600
      7 O1          4.5110    5.1590   -6.2290 o         1 7LI     -0.588500
      8 C2          1.6810    0.2180    1.5750 c3        1 7LI     -0.113600
      9 N2          3.1920    4.6340   -8.0680 n         1 7LI     -0.606500
     10 O2          1.7170    3.7380   -9.6230 o         1 7LI     -0.522500
     11 C3          2.2310    0.7040   -2.0010 ca        1 7LI      0.116100
     12 C4          1.8220   -0.4470   -2.6880 ca        1 7LI     -0.172000
     13 C5          1.8980   -0.4860   -4.0750 ca        1 7LI     -0.078000
     14 C6          2.3840    0.6090   -4.7850 ca        1 7LI     -0.136000
     15 C7          2.8040    1.7690   -4.1220 ca        1 7LI     -0.023800
     16 C8          2.7160    1.8390   -2.7070 ca        1 7LI      0.049600
     17 C9          2.0090    3.7240   -1.3570 c3        1 7LI      0.156800
     18 C10         2.4300    5.0790   -0.7900 c3        1 7LI     -0.080400
     19 C11         3.6750    4.9670    0.0690 c3        1 7LI     -0.100400
     20 C12         4.7750    4.2890   -0.7490 c3        1 7LI      0.105500
     21 C13         4.2870    2.8930   -1.2220 c3        1 7LI      0.158800
     22 C14         3.3430    2.8880   -4.8770 ce        1 7LI      0.003800
     23 C15         3.0270    3.2290   -6.1370 cd        1 7LI     -0.128600
     24 C16         3.6690    4.4270   -6.7670 c         1 7LI      0.708700
     25 C17         2.2390    3.7030   -8.5090 c         1 7LI      0.711100
     26 H          -0.7850   -0.2900    0.4350 hc        1 7LI      0.052867
     27 HA         -0.2800    1.4070    0.0300 hc        1 7LI      0.052867
     28 HB         -0.3250    0.1430   -1.2680 hc        1 7LI      0.052867
     29 H1          1.5410   -1.1160   -0.1340 h1        1 7LI      0.057700
     30 HN1         6.3640    5.0780    0.3470 hn        1 7LI      0.458133
     31 HN1A        6.7720    3.7230   -0.5440 hn        1 7LI      0.458133
     32 H2          1.5050    1.2890    1.8350 hc        1 7LI      0.052867
     33 H2A         1.0340   -0.4240    2.2180 hc        1 7LI      0.052867
     34 H2B         2.7510   -0.0280    1.7720 hc        1 7LI      0.052867
     35 HN2         3.5080    5.3860   -8.6360 hn        1 7LI      0.363500
     36 H4          1.4380   -1.3200   -2.1400 ha        1 7LI      0.155000
     37 H5          1.5740   -1.3900   -4.6160 ha        1 7LI      0.157000
     38 H6          2.4520    0.5540   -5.8860 ha        1 7LI      0.161000
     39 H9          1.1850    3.8830   -2.1080 h1        1 7LI      0.069700
     40 H9A         1.6010    3.0810   -0.5210 h1        1 7LI      0.069700
     41 H10         1.5880    5.4790   -0.1650 hc        1 7LI      0.077700
     42 H10A        2.6100    5.8050   -1.6260 hc        1 7LI      0.077700
     43 H11         3.4450    4.3610    0.9860 hc        1 7LI      0.065200
     44 H11A        3.9970    5.9900    0.3960 hc        1 7LI      0.065200
     45 H12         5.0260    4.9280   -1.6510 hx        1 7LI      0.128700
     46 H13         5.0840    2.4010   -1.8480 h1        1 7LI      0.063700
     47 H13A        4.0860    2.2450   -0.3170 h1        1 7LI      0.063700
     48 H14         4.0880    3.5210   -4.3530 ha        1 7LI      0.159000
     49 H131        5.8900    3.5640    0.8620 hn        1 7LI      0.458133
@<TRIPOS>BOND
     1    1    5 1   
     2    1   26 1   
     3    1   27 1   
     4    1   28 1   
     5    2   16 1   
     6    2   17 1   
     7    2   21 1   
     8    3    5 1   
     9    3   11 1   
    10    4   23 1   
    11    4   25 1   
    12    5    8 1   
    13    5   29 1   
    14    6   20 1   
    15    6   30 1   
    16    6   31 1   
    17    6   49 1   
    18    7   24 2   
    19    8   32 1   
    20    8   33 1   
    21    8   34 1   
    22    9   24 1   
    23    9   25 1   
    24    9   35 1   
    25   10   25 2   
    26   11   12 ar  
    27   11   16 ar  
    28   12   13 ar  
    29   12   36 1   
    30   13   14 ar  
    31   13   37 1   
    32   14   15 ar  
    33   14   38 1   
    34   15   16 ar  
    35   15   22 1   
    36   17   18 1   
    37   17   39 1   
    38   17   40 1   
    39   18   19 1   
    40   18   41 1   
    41   18   42 1   
    42   19   20 1   
    43   19   43 1   
    44   19   44 1   
    45   20   21 1   
    46   20   45 1   
    47   21   46 1   
    48   21   47 1   
    49   22   23 2   
    50   22   48 1   
    51   23   24 1   
@<TRIPOS>SUBSTRUCTURE
     1 7LI         1 TEMP              0 ****  ****    0 ROOT
