@<TRIPOS>MOLECULE
7LI
   48    48     1     0     0
SMALL
bcc


@<TRIPOS>ATOM
      1 C          -3.2360   -2.0170    2.5260 c3        1 7LI     -0.230500
      2 N           0.5780    0.7800    0.0550 n3        1 7LI     -0.219000
      3 O          -1.0440   -1.2620    1.7740 os        1 7LI     -0.225000
      4 S          -0.9570    0.3140   -4.4140 ss        1 7LI      0.305000
      5 C1         -1.7500   -2.3710    2.3840 c3        1 7LI      0.030000
      6 N1          3.6700    1.2960    2.0810 n3        1 7LI     -0.333000
      7 O1          1.9570    2.6080   -4.3810 o         1 7LI     -0.300000
      8 C2         -1.1630   -2.6540    3.7610 c3        1 7LI     -0.230500
      9 N2          0.0700    2.0330   -5.9800 n         1 7LI     -0.394000
     10 O2         -1.9490    0.8620   -6.6880 o         1 7LI     -0.283000
     11 C3         -0.7170   -1.4710    0.4080 c2        1 7LI      0.056000
     12 C4         -1.1340   -2.6290   -0.2320 c2        1 7LI     -0.172000
     13 C5         -0.9300   -2.7800   -1.5970 c1        1 7LI     -0.104000
     14 C6         -0.3050   -1.7670   -2.3260 c1        1 7LI     -0.137000
     15 C7          0.1120   -0.6110   -1.6890 c1        1 7LI     -0.041000
     16 C8         -0.0920   -0.4580   -0.3220 c1        1 7LI      0.021000
     17 C9         -0.3230    1.5920    0.8830 c3        1 7LI     -0.065000
     18 C10         0.3590    2.8390    1.4370 c3        1 7LI     -0.157000
     19 C11         1.6280    2.5280    2.1190 c3        1 7LI     -0.154000
     20 C12         2.5300    1.7100    1.2800 c3        1 7LI     -0.033000
     21 C13         1.8400    0.4670    0.7260 c3        1 7LI     -0.106000
     22 C14         0.8320    0.4780   -2.4820 c2        1 7LI      0.036000
     23 C15         0.3410    0.8790   -3.6980 c2        1 7LI     -0.374000
     24 C16         0.9530    1.9620   -4.6150 c2        1 7LI      0.348000
     25 C17        -1.0990    1.0770   -5.8440 c2        1 7LI      0.183000
     26 H          -3.3780   -1.5300    3.3660 hc        1 7LI      0.089333
     27 HA         -3.7710   -2.8420    2.5310 hc        1 7LI      0.089333
     28 HB         -3.5120   -1.4530    1.7700 hc        1 7LI      0.089333
     29 H1         -1.6580   -3.1650    1.8210 h1        1 7LI      0.084000
     30 HN1         3.8050    0.3980    1.9780 hn        1 7LI      0.142500
     31 HN1A        3.5060    1.4800    2.9610 hn        1 7LI      0.142500
     32 H2         -1.7950   -3.2020    4.2820 hc        1 7LI      0.089333
     33 H2A        -1.0040   -1.8100    4.2270 hc        1 7LI      0.089333
     34 H2B        -0.3140   -3.1390    3.6620 hc        1 7LI      0.089333
     35 HN2         0.2300    2.5870   -6.6950 hn        1 7LI      0.267000
     36 H4         -1.5690   -3.3350    0.2750 ha        1 7LI      0.143000
     37 H5         -1.2220   -3.5900   -2.0450 ha        1 7LI      0.142000
     38 H6         -0.1610   -1.8740   -3.2880 ha        1 7LI      0.150000
     39 H9         -1.0870    1.8640    0.3440 h1        1 7LI      0.080000
     40 H9A        -0.6400    1.0510    1.6270 h1        1 7LI      0.080000
     41 H10        -0.2440    3.2730    2.0730 hc        1 7LI      0.090000
     42 H10A        0.5390    3.4560    0.6980 hc        1 7LI      0.090000
     43 H11         2.0800    3.3670    2.3440 hc        1 7LI      0.087500
     44 H11A        1.4330    2.0420    2.9430 hc        1 7LI      0.087500
     45 H12         2.8480    2.2540    0.5340 h1        1 7LI      0.113000
     46 H13         1.6610   -0.1530    1.4650 h1        1 7LI      0.080500
     47 H13A        2.4390    0.0320    0.0860 h1        1 7LI      0.080500
     48 H14         1.6430    0.8890   -2.1230 ha        1 7LI      0.182000
@<TRIPOS>BOND
     1    1    5 1   
     2    1   26 1   
     3    1   27 1   
     4    1   28 1   
     5    2   16 1   
     6    2   17 1   
     7    2   21 1   
     8    3    5 1   
     9    3   11 1   
    10    4   23 1   
    11    4   25 1   
    12    5    8 1   
    13    5   29 1   
    14    6   20 1   
    15    6   30 1   
    16    6   31 1   
    17    7   24 1   
    18    8   32 1   
    19    8   33 1   
    20    8   34 1   
    21    9   24 1   
    22    9   25 1   
    23    9   35 1   
    24   10   25 1   
    25   11   12 1   
    26   11   16 1   
    27   12   13 1   
    28   12   36 1   
    29   13   37 1   
    30   14   15 1   
    31   14   38 1   
    32   15   22 1   
    33   17   18 1   
    34   17   39 1   
    35   17   40 1   
    36   18   19 1   
    37   18   41 1   
    38   18   42 1   
    39   19   20 1   
    40   19   43 1   
    41   19   44 1   
    42   20   21 1   
    43   20   45 1   
    44   21   46 1   
    45   21   47 1   
    46   22   23 1   
    47   22   48 1   
    48   23   24 1   
@<TRIPOS>SUBSTRUCTURE
     1 7LI         1 TEMP              0 ****  ****    0 ROOT
