@<TRIPOS>MOLECULE
7LI
   49    51     1     0     0
SMALL
bcc


@<TRIPOS>ATOM
      1 C          -0.1010    0.3320   -0.1930 c3        1 7LI     -0.113600
      2 N           3.1070    3.0570   -2.0560 nh        1 7LI     -0.606000
      3 O           2.2570    0.7950   -0.6230 os        1 7LI     -0.369900
      4 S           1.9360    2.5040   -7.2280 ss        1 7LI     -0.099200
      5 C1          1.3340   -0.0370    0.1170 c3        1 7LI      0.143100
      6 N1          6.0500    4.1490    0.0420 nz        1 7LI     -0.839600
      7 O1          4.5160    5.1560   -6.2290 o         1 7LI     -0.588500
      8 C2          1.6760    0.2200    1.5750 c3        1 7LI     -0.113600
      9 N2          3.1960    4.6330   -8.0680 ns        1 7LI     -0.606500
     10 O2          1.7210    3.7390   -9.6230 o         1 7LI     -0.522500
     11 C3          2.2290    0.7040   -2.0010 ca        1 7LI      0.116100
     12 C4          1.8200   -0.4460   -2.6880 ca        1 7LI     -0.172000
     13 C5          1.8970   -0.4850   -4.0760 ca        1 7LI     -0.078000
     14 C6          2.3840    0.6090   -4.7850 ca        1 7LI     -0.136000
     15 C7          2.8040    1.7690   -4.1220 ca        1 7LI     -0.023800
     16 C8          2.7160    1.8390   -2.7070 ca        1 7LI      0.049600
     17 C9          2.0110    3.7250   -1.3570 c3        1 7LI      0.156800
     18 C10         2.4320    5.0790   -0.7910 c3        1 7LI     -0.080400
     19 C11         3.6770    4.9660    0.0700 c3        1 7LI     -0.100400
     20 C12         4.7770    4.2870   -0.7480 c3        1 7LI      0.105500
     21 C13         4.2870    2.8900   -1.2210 c3        1 7LI      0.158800
     22 C14         3.3450    2.8870   -4.8770 ce        1 7LI      0.003800
     23 C15         3.0300    3.2290   -6.1370 cd        1 7LI     -0.128600
     24 C16         3.6740    4.4260   -6.7670 c         1 7LI      0.708700
     25 C17         2.2430    3.7030   -8.5090 c         1 7LI      0.711100
     26 H          -0.3280    0.1470   -1.2700 hc        1 7LI      0.052867
     27 HA         -0.2820    1.4120    0.0270 hc        1 7LI      0.052867
     28 HB         -0.7900   -0.2840    0.4330 hc        1 7LI      0.052867
     29 H1          1.5360   -1.1150   -0.1350 h1        1 7LI      0.057700
     30 HN1         6.7730    3.7170   -0.5410 hn        1 7LI      0.458133
     31 HN1A        5.8890    3.5600    0.8640 hn        1 7LI      0.458133
     32 H2          2.7460   -0.0270    1.7720 hc        1 7LI      0.052867
     33 H2A         1.0270   -0.4210    2.2170 hc        1 7LI      0.052867
     34 H2B         1.5010    1.2910    1.8340 hc        1 7LI      0.052867
     35 HN2         3.5140    5.3840   -8.6360 hn        1 7LI      0.363500
     36 H4          1.4340   -1.3190   -2.1410 ha        1 7LI      0.155000
     37 H5          1.5720   -1.3890   -4.6170 ha        1 7LI      0.157000
     38 H6          2.4520    0.5540   -5.8870 ha        1 7LI      0.161000
     39 H9          1.1870    3.8850   -2.1100 h1        1 7LI      0.069700
     40 H9A         1.6010    3.0830   -0.5220 h1        1 7LI      0.069700
     41 H10         2.6140    5.8050   -1.6260 hc        1 7LI      0.077700
     42 H10A        1.5910    5.4800   -0.1670 hc        1 7LI      0.077700
     43 H11         3.4450    4.3600    0.9860 hc        1 7LI      0.065200
     44 H11A        4.0000    5.9890    0.3970 hc        1 7LI      0.065200
     45 H12         5.0290    4.9260   -1.6490 hx        1 7LI      0.128700
     46 H13         4.0850    2.2440   -0.3160 h1        1 7LI      0.063700
     47 H13A        5.0840    2.3980   -1.8460 h1        1 7LI      0.063700
     48 H14         4.0910    3.5190   -4.3520 ha        1 7LI      0.159000
     49 H131        6.3650    5.0730    0.3490 hn        1 7LI      0.458133
@<TRIPOS>BOND
     1    1    5 1   
     2    1   26 1   
     3    1   27 1   
     4    1   28 1   
     5    2   16 1   
     6    2   17 1   
     7    2   21 1   
     8    3    5 1   
     9    3   11 1   
    10    4   23 1   
    11    4   25 1   
    12    5    8 1   
    13    5   29 1   
    14    6   20 1   
    15    6   30 1   
    16    6   31 1   
    17    6   49 1   
    18    7   24 2   
    19    8   32 1   
    20    8   33 1   
    21    8   34 1   
    22    9   24 1   
    23    9   25 1   
    24    9   35 1   
    25   10   25 2   
    26   11   12 ar  
    27   11   16 ar  
    28   12   13 ar  
    29   12   36 1   
    30   13   14 ar  
    31   13   37 1   
    32   14   15 ar  
    33   14   38 1   
    34   15   16 ar  
    35   15   22 1   
    36   17   18 1   
    37   17   39 1   
    38   17   40 1   
    39   18   19 1   
    40   18   41 1   
    41   18   42 1   
    42   19   20 1   
    43   19   43 1   
    44   19   44 1   
    45   20   21 1   
    46   20   45 1   
    47   21   46 1   
    48   21   47 1   
    49   22   23 2   
    50   22   48 1   
    51   23   24 1   
@<TRIPOS>SUBSTRUCTURE
     1 7LI         1 TEMP              0 ****  ****    0 ROOT
