@<TRIPOS>MOLECULE
7LI
   49    51     1     0     0
SMALL
bcc


@<TRIPOS>ATOM
      1 C          -0.1020    0.3290   -0.1950 c3        1 7LI     -0.113600
      2 N           3.1070    3.0570   -2.0560 nh        1 7LI     -0.606000
      3 O           2.2550    0.7950   -0.6230 os        1 7LI     -0.369900
      4 S           1.9450    2.5020   -7.2300 ss        1 7LI     -0.099200
      5 C1          1.3330   -0.0380    0.1160 c3        1 7LI      0.143100
      6 N1          6.0460    4.1510    0.0460 n4        1 7LI     -0.839600
      7 O1          4.5210    5.1570   -6.2260 o         1 7LI     -0.588500
      8 C2          1.6740    0.2190    1.5740 c3        1 7LI     -0.113600
      9 N2          3.2050    4.6320   -8.0680 n         1 7LI     -0.606500
     10 O2          1.7340    3.7370   -9.6260 o         1 7LI     -0.522500
     11 C3          2.2290    0.7040   -2.0020 ca        1 7LI      0.116100
     12 C4          1.8210   -0.4460   -2.6890 ca        1 7LI     -0.172000
     13 C5          1.9000   -0.4850   -4.0770 ca        1 7LI     -0.078000
     14 C6          2.3880    0.6090   -4.7850 ca        1 7LI     -0.136000
     15 C7          2.8070    1.7690   -4.1220 ca        1 7LI     -0.023800
     16 C8          2.7170    1.8390   -2.7070 ca        1 7LI      0.049600
     17 C9          2.0090    3.7250   -1.3590 c3        1 7LI      0.156800
     18 C10         2.4290    5.0790   -0.7910 c3        1 7LI     -0.080400
     19 C11         3.6720    4.9670    0.0710 c3        1 7LI     -0.100400
     20 C12         4.7740    4.2880   -0.7450 c3        1 7LI      0.105500
     21 C13         4.2860    2.8920   -1.2190 c3        1 7LI      0.158800
     22 C14         3.3490    2.8870   -4.8760 ce        1 7LI      0.003800
     23 C15         3.0350    3.2280   -6.1370 cd        1 7LI     -0.128600
     24 C16         3.6800    4.4250   -6.7660 c         1 7LI      0.708700
     25 C17         2.2530    3.7010   -8.5110 c         1 7LI      0.711100
     26 H          -0.7910   -0.2880    0.4300 hc        1 7LI      0.052867
     27 HA         -0.2850    1.4080    0.0260 hc        1 7LI      0.052867
     28 HB         -0.3280    0.1440   -1.2730 hc        1 7LI      0.052867
     29 H1          1.5360   -1.1150   -0.1360 h1        1 7LI      0.057700
     30 HN1         6.7700    3.7200   -0.5360 hn        1 7LI      0.458133
     31 HN1A        6.3610    5.0750    0.3540 hn        1 7LI      0.458133
     32 H2          2.7440   -0.0270    1.7720 hc        1 7LI      0.052867
     33 H2A         1.4970    1.2900    1.8330 hc        1 7LI      0.052867
     34 H2B         1.0250   -0.4240    2.2160 hc        1 7LI      0.052867
     35 HN2         3.5230    5.3830   -8.6360 hn        1 7LI      0.363500
     36 H4          1.4350   -1.3190   -2.1420 ha        1 7LI      0.155000
     37 H5          1.5760   -1.3890   -4.6180 ha        1 7LI      0.157000
     38 H6          2.4580    0.5530   -5.8870 ha        1 7LI      0.161000
     39 H9          1.1870    3.8850   -2.1120 h1        1 7LI      0.069700
     40 H9A         1.5990    3.0830   -0.5240 h1        1 7LI      0.069700
     41 H10         2.6120    5.8050   -1.6270 hc        1 7LI      0.077700
     42 H10A        1.5870    5.4800   -0.1690 hc        1 7LI      0.077700
     43 H11         3.4400    4.3610    0.9870 hc        1 7LI      0.065200
     44 H11A        3.9950    5.9900    0.3980 hc        1 7LI      0.065200
     45 H12         5.0270    4.9270   -1.6470 hx        1 7LI      0.128700
     46 H13         5.0830    2.3990   -1.8430 h1        1 7LI      0.063700
     47 H13A        4.0820    2.2450   -0.3140 h1        1 7LI      0.063700
     48 H14         4.0930    3.5190   -4.3500 ha        1 7LI      0.159000
     49 H131        5.8850    3.5620    0.8680 hn        1 7LI      0.458133
@<TRIPOS>BOND
     1    1    5 1   
     2    1   26 1   
     3    1   27 1   
     4    1   28 1   
     5    2   16 1   
     6    2   17 1   
     7    2   21 1   
     8    3    5 1   
     9    3   11 1   
    10    4   23 1   
    11    4   25 1   
    12    5    8 1   
    13    5   29 1   
    14    6   20 1   
    15    6   30 1   
    16    6   31 1   
    17    6   49 1   
    18    7   24 2   
    19    8   32 1   
    20    8   33 1   
    21    8   34 1   
    22    9   24 1   
    23    9   25 1   
    24    9   35 1   
    25   10   25 2   
    26   11   12 ar  
    27   11   16 ar  
    28   12   13 ar  
    29   12   36 1   
    30   13   14 ar  
    31   13   37 1   
    32   14   15 ar  
    33   14   38 1   
    34   15   16 ar  
    35   15   22 1   
    36   17   18 1   
    37   17   39 1   
    38   17   40 1   
    39   18   19 1   
    40   18   41 1   
    41   18   42 1   
    42   19   20 1   
    43   19   43 1   
    44   19   44 1   
    45   20   21 1   
    46   20   45 1   
    47   21   46 1   
    48   21   47 1   
    49   22   23 2   
    50   22   48 1   
    51   23   24 1   
@<TRIPOS>SUBSTRUCTURE
     1 7LI         1 TEMP              0 ****  ****    0 ROOT
