@<TRIPOS>MOLECULE
7LN
   67    70     1     0     0
SMALL
bcc


@<TRIPOS>ATOM
      1 N26         1.3590   -0.7300    0.7390 n2        1 7LN     -0.797100
      2 C26         1.3730    0.3450    0.0200 ce        1 7LN      0.686800
      3 C25         1.0860    1.7020    0.5170 cc        1 7LN     -0.280000
      4 S21         1.9920    3.0690    0.1630 ss        1 7LN      0.063200
      5 C22         1.0620    4.0660    1.1180 cc        1 7LN     -0.144100
      6 C23         0.0360    3.3820    1.7360 cd        1 7LN     -0.151000
      7 C24         0.0480    1.9980    1.3890 cd        1 7LN     -0.108000
      8 N27         1.6810    0.3300   -1.3830 nu        1 7LN     -0.693600
      9 C31         2.0400   -0.8400   -2.0680 ca        1 7LN      0.166600
     10 C36         1.6100   -1.0200   -3.4060 ca        1 7LN     -0.231000
     11 C32         2.9210   -1.8040   -1.5160 ca        1 7LN     -0.125000
     12 C33         3.3170   -2.9040   -2.2660 ca        1 7LN     -0.107000
     13 C34         2.8820   -3.0730   -3.5820 ca        1 7LN     -0.189000
     14 C35         2.0260   -2.1270   -4.1500 ca        1 7LN     -0.152300
     15 C37         1.5250   -2.3250   -5.5450 c3        1 7LN      0.159700
     16 O38         2.5020   -1.9450   -6.5220 os        1 7LN     -0.428600
     17 C20         2.6860   -0.5410   -6.6690 c3        1 7LN      0.121100
     18 C21         4.1300   -0.1900   -6.2540 c3        1 7LN      0.081800
     19 N22         4.4750   -0.7140   -4.9070 nz        1 7LN     -0.839600
     20 C19         2.4700   -0.1710   -8.1430 c3        1 7LN      0.115400
     21 O18         3.6020   -0.6240   -8.8780 os        1 7LN     -0.428600
     22 C17         3.4320   -0.5770  -10.2900 c3        1 7LN      0.173700
     23 C15         2.7120   -1.7650  -10.8470 ca        1 7LN     -0.130300
     24 C14         2.3490   -2.8510  -10.0450 ca        1 7LN     -0.073000
     25 C13         1.7210   -3.9590  -10.6130 ca        1 7LN     -0.123000
     26 C12         1.4490   -3.9980  -11.9760 ca        1 7LN     -0.103000
     27 C16         2.4470   -1.7870  -12.2180 ca        1 7LN     -0.058000
     28 C11         1.8090   -2.9090  -12.8030 ca        1 7LN      0.103400
     29 N07         1.6450   -2.8760  -14.1930 ne        1 7LN     -0.530100
     30 C06         0.8730   -3.6080  -14.9170 cf        1 7LN      0.603800
     31 N06         0.9870   -3.3640  -16.4050 nz        1 7LN     -0.814600
     32 C05        -0.1020   -4.6490  -14.6490 cd        1 7LN     -0.356000
     33 S01        -1.6680   -4.3760  -14.1200 ss        1 7LN      0.162200
     34 C02        -2.0510   -5.9820  -14.0730 cd        1 7LN     -0.132100
     35 C03        -0.9900   -6.7890  -14.4540 cc        1 7LN     -0.152000
     36 C04         0.1500   -6.0150  -14.7930 cc        1 7LN     -0.094000
     37 H26         1.1700   -0.5880    1.7090 hn        1 7LN      0.429400
     38 H27         1.0400    0.9120   -1.8910 hn        1 7LN      0.421800
     39 H24        -0.6800    1.2780    1.7710 ha        1 7LN      0.166000
     40 H22         1.2650    5.1320    1.2330 h4        1 7LN      0.188000
     41 H23        -0.7010    3.8230    2.4120 ha        1 7LN      0.175000
     42 H36         0.8900   -0.3150   -3.8540 ha        1 7LN      0.140000
     43 H32         3.2830   -1.7100   -0.4780 ha        1 7LN      0.185000
     44 H33         3.9680   -3.6660   -1.8040 ha        1 7LN      0.163000
     45 H34         3.1710   -3.9710   -4.1500 ha        1 7LN      0.152000
     46 H371        1.3700   -3.4200   -5.7630 h1        1 7LN      0.084200
     47 H372        0.5670   -1.7670   -5.7180 h1        1 7LN      0.084200
     48 H20         1.9500    0.0370   -6.0430 h1        1 7LN      0.076700
     49 H211        4.8490   -0.6460   -6.9980 hx        1 7LN      0.124200
     50 H212        4.2550    0.9290   -6.2550 hx        1 7LN      0.124200
     51 H191        2.3860    0.9440   -8.2450 h1        1 7LN      0.063700
     52 H192        1.5350   -0.6670   -8.5150 h1        1 7LN      0.063700
     53 H221        3.8320   -0.3370   -4.1960 hn        1 7LN      0.467800
     54 H222        5.4380   -0.4730   -4.6660 hn        1 7LN      0.467800
     55 H171        2.9110    0.3720  -10.5910 h1        1 7LN      0.077200
     56 H172        4.4920   -0.5650  -10.6750 h1        1 7LN      0.077200
     57 H14         2.5720   -2.8290   -8.9630 ha        1 7LN      0.166000
     58 H16         2.7430   -0.9270  -12.8410 ha        1 7LN      0.158000
     59 H13         1.4440   -4.8170   -9.9800 ha        1 7LN      0.158000
     60 H12         0.9710   -4.8930  -12.4090 ha        1 7LN      0.154000
     61 H061        1.1660   -4.2680  -16.8550 hn        1 7LN      0.466800
     62 H062        0.0950   -2.9920  -16.7430 hn        1 7LN      0.466800
     63 H04         1.1020   -6.4520  -15.1100 ha        1 7LN      0.169000
     64 H02        -3.0360   -6.3540  -13.7740 h4        1 7LN      0.208000
     65 H03        -1.0150   -7.8830  -14.4960 ha        1 7LN      0.191000
     66 H223        4.3590   -1.7430   -4.9050 hn        1 7LN      0.467800
     67 H063        1.7410   -2.7060  -16.6370 hn        1 7LN      0.466800
@<TRIPOS>BOND
     1    1    2 2   
     2    1   37 1   
     3    2    3 1   
     4    2    8 1   
     5    3    4 1   
     6    3    7 2   
     7    4    5 1   
     8    5    6 2   
     9    5   40 1   
    10    6    7 1   
    11    6   41 1   
    12    7   39 1   
    13    8    9 1   
    14    8   38 1   
    15    9   10 ar  
    16    9   11 ar  
    17   10   14 ar  
    18   10   42 1   
    19   11   12 ar  
    20   11   43 1   
    21   12   13 ar  
    22   12   44 1   
    23   13   14 ar  
    24   13   45 1   
    25   14   15 1   
    26   15   16 1   
    27   15   46 1   
    28   15   47 1   
    29   16   17 1   
    30   17   18 1   
    31   17   20 1   
    32   17   48 1   
    33   18   19 1   
    34   18   49 1   
    35   18   50 1   
    36   19   53 1   
    37   19   54 1   
    38   19   66 1   
    39   20   21 1   
    40   20   51 1   
    41   20   52 1   
    42   21   22 1   
    43   22   23 1   
    44   22   55 1   
    45   22   56 1   
    46   23   24 ar  
    47   23   27 ar  
    48   24   25 ar  
    49   24   57 1   
    50   25   26 ar  
    51   25   59 1   
    52   26   28 ar  
    53   26   60 1   
    54   27   28 ar  
    55   27   58 1   
    56   28   29 1   
    57   29   30 2   
    58   30   31 1   
    59   30   32 1   
    60   31   61 1   
    61   31   62 1   
    62   31   67 1   
    63   32   33 1   
    64   32   36 2   
    65   33   34 1   
    66   34   35 2   
    67   34   64 1   
    68   35   36 1   
    69   35   65 1   
    70   36   63 1   
@<TRIPOS>SUBSTRUCTURE
     1 7LN         1 TEMP              0 ****  ****    0 ROOT
