@<TRIPOS>MOLECULE
7LN
   67    70     1     0     0
SMALL
bcc


@<TRIPOS>ATOM
      1 N26         0.7610   -0.3970    0.6390 n2        1 7LN     -0.797100
      2 C26         1.1230    0.6160   -0.0790 ce        1 7LN      0.686800
      3 C25         1.1370    2.0180    0.3760 cc        1 7LN     -0.280000
      4 S21         2.3930    3.1010    0.1190 ss        1 7LN      0.063200
      5 C22         1.6490    4.3310    0.9580 cc        1 7LN     -0.144100
      6 C23         0.4220    3.9460    1.4600 cd        1 7LN     -0.151000
      7 C24         0.1210    2.5930    1.1240 cd        1 7LN     -0.108000
      8 N27         1.5670    0.4780   -1.4390 nh        1 7LN     -0.693600
      9 C31         1.6880   -0.7670   -2.0740 ca        1 7LN      0.166600
     10 C36         1.3720   -0.8770   -3.4510 ca        1 7LN     -0.231000
     11 C32         2.2310   -1.9030   -1.4220 ca        1 7LN     -0.125000
     12 C33         2.4130   -3.0910   -2.1170 ca        1 7LN     -0.107000
     13 C34         2.0940   -3.1890   -3.4730 ca        1 7LN     -0.189000
     14 C35         1.5710   -2.0770   -4.1380 ca        1 7LN     -0.152300
     15 C37         1.1880   -2.1890   -5.5790 c3        1 7LN      0.159700
     16 O38         2.3290   -2.0990   -6.4420 os        1 7LN     -0.428600
     17 C20         2.8780   -0.7930   -6.5750 c3        1 7LN      0.121100
     18 C21         4.3100   -0.8030   -6.0030 c3        1 7LN      0.081800
     19 N22         4.3650   -1.3530   -4.6230 n4        1 7LN     -0.839600
     20 C19         2.9210   -0.4290   -8.0650 c3        1 7LN      0.115400
     21 O18         3.9730   -1.1770   -8.6670 os        1 7LN     -0.428600
     22 C17         3.9720   -1.1340  -10.0900 c3        1 7LN      0.173700
     23 C15         3.0370   -2.1190  -10.7180 ca        1 7LN     -0.130300
     24 C14         2.3260   -3.0520   -9.9570 ca        1 7LN     -0.073000
     25 C13         1.5010   -3.9830  -10.5870 ca        1 7LN     -0.123000
     26 C12         1.3750   -3.9960  -11.9720 ca        1 7LN     -0.103000
     27 C16         2.9230   -2.1180  -12.1100 ca        1 7LN     -0.058000
     28 C11         2.0870   -3.0610  -12.7570 ca        1 7LN      0.103400
     29 N07         2.0860   -3.0330  -14.1570 ne        1 7LN     -0.530100
     30 C06         1.2350   -3.5680  -14.9600 cf        1 7LN      0.603800
     31 N06         1.5660   -3.4090  -16.4270 n4        1 7LN     -0.814600
     32 C05         0.0040   -4.3200  -14.7980 cd        1 7LN     -0.356000
     33 S01        -1.4880   -3.6420  -14.4460 ss        1 7LN      0.162200
     34 C02        -2.2710   -5.0960  -14.4370 cd        1 7LN     -0.132100
     35 C03        -1.4170   -6.1570  -14.6960 cc        1 7LN     -0.152000
     36 C04        -0.0870   -5.7080  -14.9080 cc        1 7LN     -0.094000
     37 H26         0.5110   -0.1790    1.5810 hn        1 7LN      0.429400
     38 H27         1.1520    1.1850   -2.0180 hn        1 7LN      0.421800
     39 H24        -0.8020    2.0910    1.4260 ha        1 7LN      0.166000
     40 H22         2.1010    5.3150    1.0900 h4        1 7LN      0.188000
     41 H23        -0.2470    4.5810    2.0470 ha        1 7LN      0.175000
     42 H36         0.9070   -0.0290   -3.9800 ha        1 7LN      0.140000
     43 H32         2.4920   -1.8680   -0.3500 ha        1 7LN      0.185000
     44 H33         2.7970   -3.9770   -1.5820 ha        1 7LN      0.163000
     45 H34         2.2040   -4.1490   -4.0000 ha        1 7LN      0.152000
     46 H371        0.7850   -3.2160   -5.8070 h1        1 7LN      0.084200
     47 H372        0.4270   -1.4140   -5.8610 h1        1 7LN      0.084200
     48 H20         2.2500   -0.0270   -6.0370 h1        1 7LN      0.076700
     49 H211        4.7140    0.2480   -5.9950 hx        1 7LN      0.124200
     50 H212        4.9650   -1.4490   -6.6600 hx        1 7LN      0.124200
     51 H191        1.9370   -0.6850   -8.5370 h1        1 7LN      0.063700
     52 H192        3.1350    0.6670   -8.1810 h1        1 7LN      0.063700
     53 H221        3.7660   -0.8020   -3.9900 hn        1 7LN      0.467800
     54 H222        5.3270   -1.3530   -4.2770 hn        1 7LN      0.467800
     55 H171        5.0350   -1.4030  -10.3540 h1        1 7LN      0.077200
     56 H172        3.7460   -0.0950  -10.4510 h1        1 7LN      0.077200
     57 H14         2.4310   -3.0520   -8.8570 ha        1 7LN      0.166000
     58 H16         3.4940   -1.3810  -12.7000 ha        1 7LN      0.158000
     59 H13         0.9490   -4.7220   -9.9850 ha        1 7LN      0.158000
     60 H12         0.7350   -4.7550  -12.4520 ha        1 7LN      0.154000
     61 H061        0.8390   -2.8350  -16.8640 hn        1 7LN      0.466800
     62 H062        1.5550   -4.3440  -16.8510 hn        1 7LN      0.466800
     63 H04         0.7490   -6.3820  -15.1170 ha        1 7LN      0.169000
     64 H02        -3.3450   -5.1970  -14.2470 h4        1 7LN      0.208000
     65 H03        -1.7150   -7.2100  -14.7370 ha        1 7LN      0.191000
     66 H223        3.9920   -2.3180   -4.6290 hn        1 7LN      0.467800
     67 H063        2.4830   -2.9730  -16.5770 hn        1 7LN      0.466800
@<TRIPOS>BOND
     1    1    2 2   
     2    1   37 1   
     3    2    3 1   
     4    2    8 1   
     5    3    4 1   
     6    3    7 2   
     7    4    5 1   
     8    5    6 2   
     9    5   40 1   
    10    6    7 1   
    11    6   41 1   
    12    7   39 1   
    13    8    9 1   
    14    8   38 1   
    15    9   10 ar  
    16    9   11 ar  
    17   10   14 ar  
    18   10   42 1   
    19   11   12 ar  
    20   11   43 1   
    21   12   13 ar  
    22   12   44 1   
    23   13   14 ar  
    24   13   45 1   
    25   14   15 1   
    26   15   16 1   
    27   15   46 1   
    28   15   47 1   
    29   16   17 1   
    30   17   18 1   
    31   17   20 1   
    32   17   48 1   
    33   18   19 1   
    34   18   49 1   
    35   18   50 1   
    36   19   53 1   
    37   19   54 1   
    38   19   66 1   
    39   20   21 1   
    40   20   51 1   
    41   20   52 1   
    42   21   22 1   
    43   22   23 1   
    44   22   55 1   
    45   22   56 1   
    46   23   24 ar  
    47   23   27 ar  
    48   24   25 ar  
    49   24   57 1   
    50   25   26 ar  
    51   25   59 1   
    52   26   28 ar  
    53   26   60 1   
    54   27   28 ar  
    55   27   58 1   
    56   28   29 1   
    57   29   30 2   
    58   30   31 1   
    59   30   32 1   
    60   31   61 1   
    61   31   62 1   
    62   31   67 1   
    63   32   33 1   
    64   32   36 2   
    65   33   34 1   
    66   34   35 2   
    67   34   64 1   
    68   35   36 1   
    69   35   65 1   
    70   36   63 1   
@<TRIPOS>SUBSTRUCTURE
     1 7LN         1 TEMP              0 ****  ****    0 ROOT
