@<TRIPOS>MOLECULE
7LN
   68    71     1     0     0
SMALL
bcc


@<TRIPOS>ATOM
      1 N26        -0.2900    1.8640   -1.3170 n2        1 7LN     -0.740100
      2 C26         0.3310    1.6700   -0.2160 ce        1 7LN      0.657800
      3 C25        -0.1280    1.5650    1.1570 cc        1 7LN     -0.393000
      4 S21        -1.0580    2.7160    1.9370 ss        1 7LN      0.216200
      5 C22        -1.1810    1.8450    3.3270 cc        1 7LN     -0.128100
      6 C23        -0.5130    0.6280    3.2510 cd        1 7LN     -0.145000
      7 C24         0.1020    0.4610    1.9880 cd        1 7LN     -0.100000
      8 N27         1.8470    1.5380   -0.3030 n4        1 7LN     -0.621400
      9 C31         2.3000    0.5400   -1.2750 ca        1 7LN     -0.029400
     10 C36         2.3530    0.8630   -2.6420 ca        1 7LN     -0.075000
     11 C32         2.6770   -0.7390   -0.8240 ca        1 7LN     -0.088000
     12 C33         3.1140   -1.6830   -1.7500 ca        1 7LN     -0.100000
     13 C34         3.1660   -1.3730   -3.1090 ca        1 7LN     -0.066000
     14 C35         2.7870   -0.1040   -3.5570 ca        1 7LN     -0.093300
     15 C37         2.7740    0.2310   -5.0150 c3        1 7LN      0.177700
     16 O38         3.8230   -0.5090   -5.6590 os        1 7LN     -0.454600
     17 C20         3.8700   -0.3240   -7.0730 c3        1 7LN      0.117100
     18 C21         5.2260   -0.8990   -7.5220 c3        1 7LN      0.097800
     19 N22         6.3880   -0.2110   -6.8950 n4        1 7LN     -0.833600
     20 C19         2.7550   -1.1110   -7.7850 c3        1 7LN      0.108400
     21 O18         3.0520   -1.0490   -9.1730 os        1 7LN     -0.442600
     22 C17         1.9180   -1.0130  -10.0460 c3        1 7LN      0.180700
     23 C15         1.8190   -2.2630  -10.8640 ca        1 7LN     -0.122300
     24 C14         2.1760   -3.5100  -10.3430 ca        1 7LN     -0.077000
     25 C13         2.0490   -4.6570  -11.1230 ca        1 7LN     -0.118000
     26 C12         1.5580   -4.5780  -12.4230 ca        1 7LN     -0.100000
     27 C16         1.3360   -2.1640  -12.1710 ca        1 7LN     -0.058000
     28 C11         1.1910   -3.3270  -12.9670 ca        1 7LN      0.114400
     29 N07         0.7550   -3.1340  -14.2860 ne        1 7LN     -0.539100
     30 C06         0.2280   -4.0070  -15.0710 cf        1 7LN      0.623800
     31 N06        -0.0750   -3.5060  -16.4660 n4        1 7LN     -0.816600
     32 C05        -0.1520   -5.4010  -14.9420 cd        1 7LN     -0.371000
     33 S01        -1.5360   -5.9520  -14.1750 ss        1 7LN      0.171200
     34 C02        -1.2100   -7.5400  -14.4800 cd        1 7LN     -0.128100
     35 C03        -0.0230   -7.7110  -15.1780 cc        1 7LN     -0.149000
     36 C04         0.5980   -6.4650  -15.4510 cc        1 7LN     -0.094000
     37 H26        -1.2870    1.9410   -1.2810 hn        1 7LN      0.482400
     38 H27         2.1810    1.2760    0.6370 hn        1 7LN      0.469800
     39 H24         0.6550   -0.4380    1.7040 ha        1 7LN      0.155000
     40 H22        -1.7300    2.1910    4.2100 h4        1 7LN      0.216000
     41 H23        -0.4680   -0.1130    4.0560 ha        1 7LN      0.194000
     42 H36         2.0410    1.8570   -3.0030 ha        1 7LN      0.167000
     43 H32         2.6330   -1.0090    0.2450 ha        1 7LN      0.167000
     44 H33         3.4120   -2.6870   -1.4000 ha        1 7LN      0.180000
     45 H34         3.5010   -2.1320   -3.8350 ha        1 7LN      0.163000
     46 H371        1.7840   -0.0640   -5.4590 h1        1 7LN      0.063700
     47 H372        2.9480    1.3290   -5.1830 h1        1 7LN      0.063700
     48 H20         3.7900    0.7690   -7.3300 h1        1 7LN      0.076700
     49 H211        5.3000   -0.8020   -8.6460 hx        1 7LN      0.135700
     50 H212        5.2780   -1.9910   -7.2380 hx        1 7LN      0.135700
     51 H191        2.7620   -2.1840   -7.4570 h1        1 7LN      0.066200
     52 H192        1.7600   -0.6520   -7.5450 h1        1 7LN      0.066200
     53 H221        6.2820   -0.2250   -5.8730 hn        1 7LN      0.467800
     54 H222        6.4390    0.7640   -7.2070 hn        1 7LN      0.467800
     55 H171        2.1080   -0.1230  -10.7120 h1        1 7LN      0.071700
     56 H172        0.9620   -0.8550   -9.4790 h1        1 7LN      0.071700
     57 H14         2.5670   -3.5810   -9.3160 ha        1 7LN      0.138000
     58 H16         1.0660   -1.1750  -12.5790 ha        1 7LN      0.159000
     59 H13         2.3370   -5.6380  -10.7120 ha        1 7LN      0.162000
     60 H12         1.4760   -5.4960  -13.0300 ha        1 7LN      0.161000
     61 H061        0.3570   -4.1600  -17.1310 hn        1 7LN      0.469800
     62 H062       -1.0910   -3.5160  -16.6020 hn        1 7LN      0.469800
     63 H04         1.5480   -6.3710  -15.9840 ha        1 7LN      0.169000
     64 H02        -1.8660   -8.3590  -14.1660 h4        1 7LN      0.211000
     65 H03         0.3910   -8.6770  -15.4880 ha        1 7LN      0.194000
     66 H272        2.2410    2.4540   -0.5540 hn        1 7LN      0.469800
     67 H223        7.2590   -0.6890   -7.1520 hn        1 7LN      0.467800
     68 H063        0.2830   -2.5580  -16.6310 hn        1 7LN      0.469800
@<TRIPOS>BOND
     1    1    2 2   
     2    1   37 1   
     3    2    3 1   
     4    2    8 1   
     5    3    4 1   
     6    3    7 2   
     7    4    5 1   
     8    5    6 2   
     9    5   40 1   
    10    6    7 1   
    11    6   41 1   
    12    7   39 1   
    13    8    9 1   
    14    8   38 1   
    15    8   66 1   
    16    9   10 ar  
    17    9   11 ar  
    18   10   14 ar  
    19   10   42 1   
    20   11   12 ar  
    21   11   43 1   
    22   12   13 ar  
    23   12   44 1   
    24   13   14 ar  
    25   13   45 1   
    26   14   15 1   
    27   15   16 1   
    28   15   46 1   
    29   15   47 1   
    30   16   17 1   
    31   17   18 1   
    32   17   20 1   
    33   17   48 1   
    34   18   19 1   
    35   18   49 1   
    36   18   50 1   
    37   19   53 1   
    38   19   54 1   
    39   19   67 1   
    40   20   21 1   
    41   20   51 1   
    42   20   52 1   
    43   21   22 1   
    44   22   23 1   
    45   22   55 1   
    46   22   56 1   
    47   23   24 ar  
    48   23   27 ar  
    49   24   25 ar  
    50   24   57 1   
    51   25   26 ar  
    52   25   59 1   
    53   26   28 ar  
    54   26   60 1   
    55   27   28 ar  
    56   27   58 1   
    57   28   29 1   
    58   29   30 2   
    59   30   31 1   
    60   30   32 1   
    61   31   61 1   
    62   31   62 1   
    63   31   68 1   
    64   32   33 1   
    65   32   36 2   
    66   33   34 1   
    67   34   35 2   
    68   34   64 1   
    69   35   36 1   
    70   35   65 1   
    71   36   63 1   
@<TRIPOS>SUBSTRUCTURE
     1 7LN         1 TEMP              0 ****  ****    0 ROOT
