@<TRIPOS>MOLECULE
7M3
   45    47     1     0     0
SMALL
bcc


@<TRIPOS>ATOM
      1 N02         0.8350    2.1340    0.0210 nv        1 7M3     -0.935500
      2 C02         1.9140    1.2540    0.1160 ca        1 7M3      0.660200
      3 N01         2.6470    1.2170    1.2490 nb        1 7M3     -0.745000
      4 C10         3.7650    0.4180    1.2710 ca        1 7M3      0.442600
      5 C03         2.2520    0.4540   -1.0530 ca        1 7M3     -0.270300
      6 C04         3.3600   -0.3420   -1.0130 ca        1 7M3     -0.052000
      7 C05         4.1660   -0.3850    0.1610 ca        1 7M3     -0.182300
      8 C06         5.3280   -1.1890    0.2520 ca        1 7M3     -0.082000
      9 C07         6.0820   -1.2030    1.3990 ca        1 7M3     -0.145000
     10 C08         5.6910   -0.4150    2.5120 ca        1 7M3     -0.094300
     11 C09         4.5660    0.3740    2.4600 ca        1 7M3     -0.151300
     12 C11         6.5200   -0.4900    3.7520 c3        1 7M3      0.176700
     13 O12         6.5800    0.8460    4.2960 os        1 7M3     -0.317900
     14 C25         7.2890    0.9970    5.4600 ca        1 7M3      0.157100
     15 C24         7.9920   -0.0220    6.1230 ca        1 7M3     -0.166000
     16 C23         8.6840    0.2760    7.2940 ca        1 7M3     -0.077000
     17 C22         8.6930    1.5730    7.8090 ca        1 7M3     -0.142000
     18 C26         7.2770    2.3070    5.9790 ca        1 7M3     -0.164000
     19 C21         7.9840    2.5820    7.1500 ca        1 7M3     -0.145300
     20 C27         7.9420    3.9630    7.7130 c3        1 7M3      0.173100
     21 N28         8.7110    4.9330    6.8470 nx        1 7M3     -0.684400
     22 C29         8.3180    6.3320    7.1440 c3        1 7M3      0.081600
     23 C30        10.1760    4.7460    7.0100 c3        1 7M3      0.081600
     24 H021        0.1310    1.8670   -0.6270 hn        1 7M3      0.416300
     25 H022        0.5030    2.5410    0.8660 hn        1 7M3      0.416300
     26 H03         1.6190    0.5080   -1.9500 ha        1 7M3      0.150000
     27 H09         4.2720    0.9860    3.3280 ha        1 7M3      0.152000
     28 H04         3.6470   -0.9600   -1.8790 ha        1 7M3      0.145000
     29 H06         5.6170   -1.8000   -0.6170 ha        1 7M3      0.141000
     30 H07         6.9870   -1.8240    1.4660 ha        1 7M3      0.135000
     31 H111        6.0410   -1.1690    4.5080 h1        1 7M3      0.056200
     32 H112        7.5630   -0.8380    3.5270 h1        1 7M3      0.056200
     33 H24         7.9950   -1.0510    5.7320 ha        1 7M3      0.163000
     34 H26         6.6880    3.0770    5.4600 ha        1 7M3      0.150000
     35 H23         9.2300   -0.5230    7.8210 ha        1 7M3      0.159000
     36 H22         9.2410    1.7880    8.7380 ha        1 7M3      0.143000
     37 H271        8.3850    3.9980    8.7490 hx        1 7M3      0.106700
     38 H272        6.8740    4.3270    7.7600 hx        1 7M3      0.106700
     39 H291        7.2280    6.4730    6.9110 hx        1 7M3      0.104367
     40 H292        8.5010    6.5520    8.2290 hx        1 7M3      0.104367
     41 H293        8.9290    7.0320    6.5120 hx        1 7M3      0.104367
     42 H301       10.7180    5.3670    6.2470 hx        1 7M3      0.104367
     43 H302       10.4230    3.6590    6.8640 hx        1 7M3      0.104367
     44 H303       10.4840    5.0650    8.0410 hx        1 7M3      0.104367
     45 H281        8.4710    4.7220    5.8660 hn        1 7M3      0.456800
@<TRIPOS>BOND
     1    1    2 1   
     2    1   24 1   
     3    1   25 1   
     4    2    3 ar  
     5    2    5 ar  
     6    3    4 ar  
     7    4    7 ar  
     8    4   11 ar  
     9    5    6 ar  
    10    5   26 1   
    11    6    7 ar  
    12    6   28 1   
    13    7    8 ar  
    14    8    9 ar  
    15    8   29 1   
    16    9   10 ar  
    17    9   30 1   
    18   10   11 ar  
    19   10   12 1   
    20   11   27 1   
    21   12   13 1   
    22   12   31 1   
    23   12   32 1   
    24   13   14 1   
    25   14   15 ar  
    26   14   18 ar  
    27   15   16 ar  
    28   15   33 1   
    29   16   17 ar  
    30   16   35 1   
    31   17   19 ar  
    32   17   36 1   
    33   18   19 ar  
    34   18   34 1   
    35   19   20 1   
    36   20   21 1   
    37   20   37 1   
    38   20   38 1   
    39   21   22 1   
    40   21   23 1   
    41   21   45 1   
    42   22   39 1   
    43   22   40 1   
    44   22   41 1   
    45   23   42 1   
    46   23   43 1   
    47   23   44 1   
@<TRIPOS>SUBSTRUCTURE
     1 7M3         1 TEMP              0 ****  ****    0 ROOT
