@<TRIPOS>MOLECULE
7M3
   45    47     1     0     0
SMALL
bcc


@<TRIPOS>ATOM
      1 N02         0.7410    2.0180    0.1200 nh        1 7M3     -0.942500
      2 C02         1.9040    1.2530    0.1360 ca        1 7M3      0.666200
      3 N01         2.7100    1.2880    1.2200 nb        1 7M3     -0.749000
      4 C10         3.7890    0.4370    1.2500 ca        1 7M3      0.444600
      5 C03         2.1710    0.3850   -1.0020 ca        1 7M3     -0.272300
      6 C04         3.2570   -0.4410   -0.9650 ca        1 7M3     -0.051000
      7 C05         4.1110   -0.4460    0.1760 ca        1 7M3     -0.184300
      8 C06         5.2450   -1.2880    0.2670 ca        1 7M3     -0.080000
      9 C07         6.0430   -1.2680    1.3830 ca        1 7M3     -0.147000
     10 C08         5.7290   -0.4040    2.4640 ca        1 7M3     -0.093300
     11 C09         4.6360    0.4290    2.4080 ca        1 7M3     -0.153300
     12 C11         6.6000   -0.4610    3.6750 c3        1 7M3      0.176700
     13 O12         6.6560    0.8710    4.2250 os        1 7M3     -0.317900
     14 C25         7.3550    1.0140    5.3960 ca        1 7M3      0.157100
     15 C24         8.0900    0.0010    6.0320 ca        1 7M3     -0.166000
     16 C23         8.7710    0.2880    7.2120 ca        1 7M3     -0.077000
     17 C22         8.7380    1.5700    7.7630 ca        1 7M3     -0.142000
     18 C26         7.3020    2.3080    5.9500 ca        1 7M3     -0.163000
     19 C21         7.9980    2.5730    7.1300 ca        1 7M3     -0.146300
     20 C27         7.9120    3.9360    7.7310 c3        1 7M3      0.173100
     21 N28         8.6690    4.9500    6.9060 n4        1 7M3     -0.684400
     22 C29         8.2370    6.3300    7.2360 c3        1 7M3      0.081600
     23 C30        10.1350    4.7950    7.0860 c3        1 7M3      0.081600
     24 H021        0.6370    2.7210    0.8150 hn        1 7M3      0.420300
     25 H022        0.3850    2.2400   -0.7790 hn        1 7M3      0.420300
     26 H03         1.4920    0.3980   -1.8670 ha        1 7M3      0.150000
     27 H09         4.4010    1.0990    3.2500 ha        1 7M3      0.152000
     28 H04         3.4880   -1.1130   -1.8060 ha        1 7M3      0.145000
     29 H06         5.4740   -1.9600   -0.5750 ha        1 7M3      0.141000
     30 H07         6.9260   -1.9210    1.4520 ha        1 7M3      0.134000
     31 H111        6.1600   -1.1550    4.4420 h1        1 7M3      0.056200
     32 H112        7.6420   -0.7870    3.4130 h1        1 7M3      0.056200
     33 H24         8.1280   -1.0170    5.6130 ha        1 7M3      0.163000
     34 H26         6.6900    3.0740    5.4510 ha        1 7M3      0.150000
     35 H23         9.3420   -0.5080    7.7180 ha        1 7M3      0.159000
     36 H22         9.2770    1.7770    8.6990 ha        1 7M3      0.143000
     37 H271        6.8340    4.2710    7.7710 hx        1 7M3      0.107200
     38 H272        8.3370    3.9530    8.7740 hx        1 7M3      0.107200
     39 H291        8.3980    6.5220    8.3310 hx        1 7M3      0.104367
     40 H292        8.8390    7.0630    6.6350 hx        1 7M3      0.104367
     41 H293        7.1470    6.4500    6.9910 hx        1 7M3      0.104367
     42 H301       10.4120    3.7180    6.9150 hx        1 7M3      0.104367
     43 H302       10.6730    5.4490    6.3490 hx        1 7M3      0.104367
     44 H303       10.4200    5.0930    8.1300 hx        1 7M3      0.104367
     45 H281        8.4490    4.7620    5.9150 hn        1 7M3      0.455800
@<TRIPOS>BOND
     1    1    2 1   
     2    1   24 1   
     3    1   25 1   
     4    2    3 ar  
     5    2    5 ar  
     6    3    4 ar  
     7    4    7 ar  
     8    4   11 ar  
     9    5    6 ar  
    10    5   26 1   
    11    6    7 ar  
    12    6   28 1   
    13    7    8 ar  
    14    8    9 ar  
    15    8   29 1   
    16    9   10 ar  
    17    9   30 1   
    18   10   11 ar  
    19   10   12 1   
    20   11   27 1   
    21   12   13 1   
    22   12   31 1   
    23   12   32 1   
    24   13   14 1   
    25   14   15 ar  
    26   14   18 ar  
    27   15   16 ar  
    28   15   33 1   
    29   16   17 ar  
    30   16   35 1   
    31   17   19 ar  
    32   17   36 1   
    33   18   19 ar  
    34   18   34 1   
    35   19   20 1   
    36   20   21 1   
    37   20   37 1   
    38   20   38 1   
    39   21   22 1   
    40   21   23 1   
    41   21   45 1   
    42   22   39 1   
    43   22   40 1   
    44   22   41 1   
    45   23   42 1   
    46   23   43 1   
    47   23   44 1   
@<TRIPOS>SUBSTRUCTURE
     1 7M3         1 TEMP              0 ****  ****    0 ROOT
