@<TRIPOS>MOLECULE
7MC
   70    72     1     0     0
SMALL
bcc


@<TRIPOS>ATOM
      1 C           1.5860    1.1900    0.9840 c         1 7MC      0.551100
      2 N           3.7630    2.3000    1.0300 n         1 7MC     -0.585900
      3 O           0.7030    1.9010    0.5250 o         1 7MC     -0.434100
      4 P          -0.1340   -0.4080   -0.1770 p5        1 7MC      1.509400
      5 N1         -3.9580   -2.7380   -9.7790 nb        1 7MC     -0.662000
      6 C2         -4.6620   -2.2900   -8.6990 ca        1 7MC      0.688900
      7 N3         -4.1990   -1.6450   -7.5960 nb        1 7MC     -0.656000
      8 C4         -2.8600   -1.4360   -7.6030 ca        1 7MC      0.450800
      9 C5         -1.9760   -1.8740   -8.7060 ca        1 7MC     -0.131200
     10 C6         -2.6190   -2.5250   -9.7760 ca        1 7MC      0.541200
     11 N6         -1.8140   -2.9730  -10.9280 n4        1 7MC     -0.818300
     12 N7         -0.6520   -1.5140   -8.4300 nc        1 7MC     -0.565100
     13 C8         -0.7010   -0.8840   -7.2430 cd        1 7MC      0.518700
     14 N8          1.3830   -0.2440    0.6290 n4        1 7MC     -0.683900
     15 N9         -1.9980   -0.8220   -6.6790 na        1 7MC     -0.280000
     16 CA          2.8280    1.5640    1.8240 c3        1 7MC      0.104700
     17 CB          2.3400    2.2960    3.0850 c3        1 7MC     -0.207400
     18 CG          1.3130    1.4580    3.7920 c         1 7MC      0.668100
     19 C1'        -2.4290   -0.0290   -5.5420 c3        1 7MC      0.224800
     20 O1P        -0.4130   -1.8250   -0.3570 o         1 7MC     -0.763300
     21 C2'        -3.3930   -0.7700   -4.5560 c3        1 7MC      0.090100
     22 O2'        -4.6000   -0.0480   -4.4830 oh        1 7MC     -0.594800
     23 C3'        -2.7000   -0.6800   -3.1770 c3        1 7MC      0.119100
     24 O3'        -3.5310   -0.2110   -2.1420 oh        1 7MC     -0.606800
     25 O31        -1.2010    0.3350    0.7530 os        1 7MC     -0.531200
     26 C32        -1.9860   -0.4590    1.6310 c3        1 7MC      0.161400
     27 C33        -3.4490   -0.0760    1.4240 c3        1 7MC     -0.134400
     28 C34        -4.2960   -0.8350    2.4370 c3        1 7MC      0.101800
     29 N35        -5.7400   -0.4660    2.3800 n4        1 7MC     -0.836600
     30 C36         4.3230    1.7120   -0.1050 c         1 7MC      0.708100
     31 C37         5.4410    2.4210   -0.8050 c3        1 7MC     -0.173100
     32 O38         3.8470    0.6160   -0.4790 o         1 7MC     -0.674100
     33 C4'        -1.4980    0.2620   -3.3930 c3        1 7MC      0.081100
     34 O4'        -1.2640    0.3780   -4.8060 os        1 7MC     -0.409600
     35 C5'        -0.1920   -0.2300   -2.7610 c3        1 7MC      0.154400
     36 O5'         0.0040    0.4380   -1.5180 os        1 7MC     -0.536200
     37 OD1         0.9200    1.7370    5.0480 oh        1 7MC     -0.518100
     38 OD2         0.7330    0.4860    3.2790 o         1 7MC     -0.603000
     39 HN          4.0070    3.2240    1.3030 hn        1 7MC      0.356500
     40 HN6        -0.9840   -3.4710  -10.5790 hn        1 7MC      0.486133
     41 HN6A       -1.5130   -2.1460  -11.4610 hn        1 7MC      0.486133
     42 HN8         2.1960   -0.5380    0.0550 hn        1 7MC      0.512800
     43 HA          3.3210    0.5920    2.1500 h1        1 7MC      0.101700
     44 HB          3.2180    2.4880    3.7640 hc        1 7MC      0.127700
     45 HBA         1.8780    3.2890    2.8240 hc        1 7MC      0.127700
     46 H1'        -2.9210    0.9170   -5.9320 h2        1 7MC      0.119700
     47 H2'        -3.5680   -1.8400   -4.8430 h1        1 7MC      0.093700
     48 HO2'       -5.1920   -0.3880   -5.1690 ho        1 7MC      0.452000
     49 H3'        -2.3720   -1.7040   -2.8400 h1        1 7MC      0.107700
     50 HO3'       -4.0730    0.5150   -2.4870 ho        1 7MC      0.442000
     51 H32        -1.8230   -1.5510    1.4140 h1        1 7MC      0.090200
     52 H32A       -1.6580   -0.2040    2.6820 h1        1 7MC      0.090200
     53 H33        -3.5500    1.0350    1.5590 hc        1 7MC      0.094700
     54 H33A       -3.7560   -0.3200    0.3700 hc        1 7MC      0.094700
     55 H34        -3.9320   -0.6210    3.4860 hx        1 7MC      0.120700
     56 H34A       -4.2200   -1.9470    2.2500 hx        1 7MC      0.120700
     57 HN35       -6.2650   -1.0060    3.0800 hn        1 7MC      0.469800
     58 HN3A       -6.1240   -0.6650    1.4500 hn        1 7MC      0.469800
     59 H37         6.3460    2.4530   -0.1450 hc        1 7MC      0.101367
     60 H37A        5.6970    1.8590   -1.7390 hc        1 7MC      0.101367
     61 H37B        5.1510    3.4670   -1.0740 hc        1 7MC      0.101367
     62 H4'        -1.7340    1.2980   -3.0140 h1        1 7MC      0.104700
     63 H5'        -0.1920   -1.3430   -2.6020 h1        1 7MC      0.097700
     64 H5'A        0.6740    0.0810   -3.4150 h1        1 7MC      0.097700
     65 H8          0.1640   -0.4420   -6.7190 h5        1 7MC      0.115800
     66 H2          1.4210    2.4850    5.4180 ho        1 7MC      0.467000
     67 H63        -2.3590   -3.5950  -11.5440 hn        1 7MC      0.486133
     68 H82         1.4240   -0.8000    1.4960 hn        1 7MC      0.512800
     69 H353       -5.8610    0.5350    2.5750 hn        1 7MC      0.469800
     70 H21        -5.7620   -2.4790   -8.7390 h5        1 7MC      0.109100
@<TRIPOS>BOND
     1    1    3 2   
     2    1   14 1   
     3    1   16 1   
     4    2   16 1   
     5    2   30 1   
     6    2   39 1   
     7    4   14 1   
     8    4   20 2   
     9    4   25 1   
    10    4   36 1   
    11    5    6 ar  
    12    5   10 ar  
    13    6    7 ar  
    14    6   70 1   
    15    7    8 ar  
    16    8    9 ar  
    17    8   15 1   
    18    9   10 ar  
    19    9   12 1   
    20   10   11 1   
    21   11   40 1   
    22   11   41 1   
    23   11   67 1   
    24   12   13 2   
    25   13   15 1   
    26   13   65 1   
    27   14   42 1   
    28   14   68 1   
    29   15   19 1   
    30   16   17 1   
    31   16   43 1   
    32   17   18 1   
    33   17   44 1   
    34   17   45 1   
    35   18   37 1   
    36   18   38 2   
    37   19   21 1   
    38   19   34 1   
    39   19   46 1   
    40   21   22 1   
    41   21   23 1   
    42   21   47 1   
    43   22   48 1   
    44   23   24 1   
    45   23   33 1   
    46   23   49 1   
    47   24   50 1   
    48   25   26 1   
    49   26   27 1   
    50   26   51 1   
    51   26   52 1   
    52   27   28 1   
    53   27   53 1   
    54   27   54 1   
    55   28   29 1   
    56   28   55 1   
    57   28   56 1   
    58   29   57 1   
    59   29   58 1   
    60   29   69 1   
    61   30   31 1   
    62   30   32 2   
    63   31   59 1   
    64   31   60 1   
    65   31   61 1   
    66   33   34 1   
    67   33   35 1   
    68   33   62 1   
    69   35   36 1   
    70   35   63 1   
    71   35   64 1   
    72   37   66 1   
@<TRIPOS>SUBSTRUCTURE
     1 7MC         1 TEMP              0 ****  ****    0 ROOT
