@<TRIPOS>MOLECULE
7MC
   66    68     1     0     0
SMALL
bcc


@<TRIPOS>ATOM
      1 C          -2.8950    1.8080   -0.1140 c         1 7MC      0.661100
      2 N          -1.5970    3.7360   -0.8820 n         1 7MC     -0.533900
      3 O          -3.3400    1.1390   -1.0620 o         1 7MC     -0.588100
      4 P          -2.5720   -0.5490    0.8020 p5        1 7MC      1.615500
      5 N1          6.9330   -0.4360    1.7220 nb        1 7MC     -0.800000
      6 C2          6.6010   -1.3730    0.7920 ca        1 7MC      0.677900
      7 N3          5.4950   -1.4860    0.0220 nb        1 7MC     -0.758000
      8 C4          4.5960   -0.4790    0.2460 ca        1 7MC      0.436800
      9 C5          4.8090    0.5990    1.2030 ca        1 7MC     -0.216200
     10 C6          6.0380    0.5860    1.9400 ca        1 7MC      0.750200
     11 N6          6.3260    1.6040    2.8180 nh        1 7MC     -0.953500
     12 N7          3.7050    1.4650    1.2000 nc        1 7MC     -0.556100
     13 C8          2.8560    0.9580    0.2940 cd        1 7MC      0.440700
     14 N8         -2.5120    1.0250    0.9720 n         1 7MC     -0.728900
     15 N9          3.3360   -0.2280   -0.3190 na        1 7MC     -0.292000
     16 CA         -2.7220    3.3340   -0.0700 c3        1 7MC      0.086700
     17 CB         -4.0340    3.9870   -0.5130 c3        1 7MC     -0.218400
     18 CG         -3.9260    5.5270   -0.5150 c         1 7MC      0.911600
     19 C1'         2.7760   -1.0030   -1.4050 c3        1 7MC      0.221800
     20 O1P        -2.1190   -1.3160    1.9710 o         1 7MC     -0.854300
     21 C2'         2.5960   -2.5210   -1.0650 c3        1 7MC      0.078100
     22 O2'         3.3100   -3.2930   -2.0060 oh        1 7MC     -0.593800
     23 C3'         1.0860   -2.8000   -1.2450 c3        1 7MC      0.130100
     24 O3'         0.8110   -3.6800   -2.3080 oh        1 7MC     -0.572800
     25 O31        -4.0400   -1.0440    0.3500 os        1 7MC     -0.544200
     26 C32        -4.1270   -2.4500    0.2190 c3        1 7MC      0.162400
     27 C33        -5.5760   -2.8090   -0.0490 c3        1 7MC     -0.088400
     28 C34        -5.7340   -4.3270   -0.0390 c3        1 7MC      0.155800
     29 N35        -7.0800   -4.7730   -0.3170 n3        1 7MC     -0.914800
     30 C36        -0.3120    3.3540   -0.6090 c         1 7MC      0.660100
     31 C37         0.7960    4.0290   -1.3820 c3        1 7MC     -0.171100
     32 O38        -0.0480    2.4410    0.2170 o         1 7MC     -0.707100
     33 C4'         0.4500   -1.4130   -1.4660 c3        1 7MC      0.096100
     34 O4'         1.5050   -0.4930   -1.8020 os        1 7MC     -0.401600
     35 C5'        -0.2940   -0.8890   -0.2390 c3        1 7MC      0.125400
     36 O5'        -1.6760   -1.0370   -0.4660 os        1 7MC     -0.557200
     37 OD1        -4.6790    6.1680    0.2620 o         1 7MC     -0.832300
     38 OD2        -3.0910    6.0610   -1.3070 o         1 7MC     -0.832300
     39 HN         -1.7710    4.5540   -1.4530 hn        1 7MC      0.382500
     40 HN6         7.1010    1.5230    3.4280 hn        1 7MC      0.441300
     41 HN6A        5.5950    2.2300    3.0540 hn        1 7MC      0.441300
     42 HN8        -2.0800    1.4810    1.7410 hn        1 7MC      0.356500
     43 HA         -2.5210    3.6390    1.0040 h1        1 7MC      0.061700
     44 HB         -4.3070    3.6450   -1.5420 hc        1 7MC      0.057700
     45 HBA        -4.8380    3.6710    0.1960 hc        1 7MC      0.057700
     46 H1'         3.4500   -0.8780   -2.3080 h2        1 7MC      0.093700
     47 H2'         2.9220   -2.7660   -0.0210 h1        1 7MC      0.078700
     48 HO2'        4.2430   -3.2400   -1.7570 ho        1 7MC      0.429000
     49 H3'         0.6560   -3.3090   -0.3400 h1        1 7MC      0.104700
     50 HO3'        1.3210   -3.3890   -3.0750 ho        1 7MC      0.415000
     51 H32        -3.4640   -2.7610   -0.6330 h1        1 7MC      0.049200
     52 H32A       -3.7560   -2.9160    1.1750 h1        1 7MC      0.049200
     53 H33        -6.2230   -2.3370    0.7360 hc        1 7MC      0.062200
     54 H33A       -5.8880   -2.3840   -1.0380 hc        1 7MC      0.062200
     55 H34        -5.0690   -4.7690   -0.8360 h1        1 7MC      0.026200
     56 H34A       -5.3540   -4.7110    0.9560 h1        1 7MC      0.026200
     57 HN35       -7.2060   -5.7120    0.0040 hn        1 7MC      0.344300
     58 HN3A       -7.7550   -4.1830    0.1290 hn        1 7MC      0.344300
     59 H37         0.6730    3.8460   -2.4770 hc        1 7MC      0.064367
     60 H37A        0.7820    5.1310   -1.1950 hc        1 7MC      0.064367
     61 H37B        1.7760    3.6120   -1.0480 hc        1 7MC      0.064367
     62 H4'        -0.2360   -1.4120   -2.3580 h1        1 7MC      0.118700
     63 H5'        -0.0270   -1.4560    0.6950 h1        1 7MC      0.067700
     64 H5'A       -0.0640    0.2070   -0.1000 h1        1 7MC      0.067700
     65 H2          7.3630   -2.1690    0.6510 h5        1 7MC      0.043100
     66 H8          1.8670    1.3840    0.0310 h5        1 7MC      0.126800
@<TRIPOS>BOND
     1    1    3 2   
     2    1   14 1   
     3    1   16 1   
     4    2   16 1   
     5    2   30 1   
     6    2   39 1   
     7    4   14 1   
     8    4   20 2   
     9    4   25 1   
    10    4   36 1   
    11    5    6 ar  
    12    5   10 ar  
    13    6    7 ar  
    14    6   65 1   
    15    7    8 ar  
    16    8    9 ar  
    17    8   15 1   
    18    9   10 ar  
    19    9   12 1   
    20   10   11 1   
    21   11   40 1   
    22   11   41 1   
    23   12   13 2   
    24   13   15 1   
    25   13   66 1   
    26   14   42 1   
    27   15   19 1   
    28   16   17 1   
    29   16   43 1   
    30   17   18 1   
    31   17   44 1   
    32   17   45 1   
    33   18   37 1   
    34   18   38 1   
    35   19   21 1   
    36   19   34 1   
    37   19   46 1   
    38   21   22 1   
    39   21   23 1   
    40   21   47 1   
    41   22   48 1   
    42   23   24 1   
    43   23   33 1   
    44   23   49 1   
    45   24   50 1   
    46   25   26 1   
    47   26   27 1   
    48   26   51 1   
    49   26   52 1   
    50   27   28 1   
    51   27   53 1   
    52   27   54 1   
    53   28   29 1   
    54   28   55 1   
    55   28   56 1   
    56   29   57 1   
    57   29   58 1   
    58   30   31 1   
    59   30   32 2   
    60   31   59 1   
    61   31   60 1   
    62   31   61 1   
    63   33   34 1   
    64   33   35 1   
    65   33   62 1   
    66   35   36 1   
    67   35   63 1   
    68   35   64 1   
@<TRIPOS>SUBSTRUCTURE
     1 7MC         1 TEMP              0 ****  ****    0 ROOT
