@<TRIPOS>MOLECULE
7MC
   66    59     1     0     0
SMALL
bcc


@<TRIPOS>ATOM
      1 C           2.4920   -0.8670    0.2870 c1        1 7MC      0.314000
      2 N           4.5320   -0.2430   -0.9300 n         1 7MC     -0.358000
      3 O           1.8610   -0.9140   -0.7200 o         1 7MC     -0.416000
      4 P           0.3810   -2.0000    1.6270 p3        1 7MC      2.663000
      5 N1         -0.5220    3.1120   -5.5830 n1        1 7MC     -0.276000
      6 C2          0.2270    3.0270   -4.4430 c1        1 7MC      0.010000
      7 N3         -0.3800    2.7470   -3.2390 n1        1 7MC     -0.218000
      8 C4         -1.7440    2.5510   -3.1860 c1        1 7MC      0.047000
      9 C5         -2.4830    2.6350   -4.3180 c1        1 7MC     -0.228000
     10 C6         -1.8680    2.9190   -5.5300 c1        1 7MC      0.222000
     11 N6         -2.2830    3.1290   -6.8320 n3        1 7MC     -0.352000
     12 N7         -3.7710    2.2950   -4.0080 n1        1 7MC     -0.169500
     13 C8         -3.8210    2.0000   -2.6730 c1        1 7MC     -0.017000
     14 N8          2.0200   -1.5680    1.4780 n2        1 7MC     -0.872000
     15 N9         -2.5790    2.1540   -2.1620 n1        1 7MC     -0.169500
     16 CA          3.8040   -0.0670    0.3340 c2        1 7MC      0.035000
     17 CB          3.5020    1.3630    0.5350 c3        1 7MC     -0.246000
     18 CG          4.4890    1.9550    1.5100 c2        1 7MC      0.328000
     19 C1'        -2.1040    2.4250   -0.9760 c2        1 7MC      0.123000
     20 O1P        -0.0860   -2.6210    0.3630 o         1 7MC     -1.093000
     21 C2'        -3.2570    2.6150    0.0300 c3        1 7MC     -0.033000
     22 O2'        -3.0280    3.8360    0.8490 oh        1 7MC     -0.295000
     23 C3'        -3.2290    1.5350    0.7960 c3        1 7MC      0.041000
     24 O3'        -3.6190    1.8740    2.1210 oh        1 7MC     -0.304000
     25 O31         0.2160   -3.0640    2.8550 os        1 7MC     -0.726000
     26 C32        -0.5380   -4.2360    2.6360 c3        1 7MC      0.018000
     27 C33        -0.8100   -4.9360    3.9900 c3        1 7MC     -0.168000
     28 C34        -2.3330   -5.0320    4.2130 c3        1 7MC     -0.082000
     29 N35        -2.6170   -5.2230    5.6240 n3        1 7MC     -0.347000
     30 C36         5.9810   -0.0970   -0.9620 c2        1 7MC      0.299000
     31 C37         6.7730   -0.6670   -2.1120 c3        1 7MC     -0.244000
     32 O38         6.5600    0.4600   -0.0390 o         1 7MC     -0.372000
     33 C4'        -1.6910    1.0120    0.7820 c3        1 7MC     -0.073000
     34 O4'        -1.2500    1.2100   -0.4270 os        1 7MC     -0.252000
     35 C5'        -1.6390   -0.4440    1.1180 c3        1 7MC      0.015000
     36 O5'        -0.4960   -0.6990    1.9340 os        1 7MC     -0.739000
     37 OD1         5.0470    3.0610    1.2420 o         1 7MC     -0.572500
     38 OD2         4.8740    1.2610    2.5670 o         1 7MC     -0.572500
     39 HN          4.0840   -0.4960   -1.6830 hn        1 7MC      0.222000
     40 H2          1.2110    3.2730   -4.4670 ha        1 7MC      0.179000
     41 HN6        -1.6960    2.9910   -7.5300 hn        1 7MC      0.231500
     42 HN6A       -3.1670    3.3450   -7.0070 hn        1 7MC      0.231500
     43 H8         -4.5840    1.7250   -2.1960 DU        1 7MC      0.250000
     44 HN8         2.5940   -1.7780    2.1240 hn        1 7MC      0.315000
     45 HA          4.3720   -0.4000    1.0950 h4        1 7MC      0.172000
     46 HB          3.5710    1.8350   -0.3220 hc        1 7MC      0.097000
     47 HBA         2.5500    1.4650    0.9050 hc        1 7MC      0.097000
     48 H1'        -1.5070    3.3020   -1.0140 h4        1 7MC      0.136000
     49 H2'        -4.0890    2.6740   -0.4260 h1        1 7MC      0.102000
     50 HO2'       -3.5260    4.5410    0.4990 ho        1 7MC      0.210000
     51 H3'        -3.8260    0.8450    0.4320 h1        1 7MC      0.121000
     52 HO3'       -4.5130    1.8090    2.1960 ho        1 7MC      0.246000
     53 H32        -0.0630   -4.8120    2.0790 h1        1 7MC      0.087000
     54 H32A       -1.4180   -3.9940    2.1980 h1        1 7MC      0.087000
     55 H33        -0.4040   -4.4200    4.7140 hc        1 7MC      0.098500
     56 H33A       -0.4330   -5.8140    3.9750 hc        1 7MC      0.098500
     57 H34        -2.6840   -5.7810    3.7110 h1        1 7MC      0.065500
     58 H34A       -2.7580   -4.2080    3.9060 h1        1 7MC      0.065500
     59 HN35       -2.6120   -4.4440    6.0320 hn        1 7MC      0.138500
     60 HN3A       -3.4220   -5.5990    5.7140 hn        1 7MC      0.138500
     61 H37         6.5600   -0.2160   -2.8890 hc        1 7MC      0.099667
     62 H37A        7.7740   -0.5620   -1.9230 hc        1 7MC      0.099667
     63 H37B        6.5480   -1.6520   -2.2200 hc        1 7MC      0.099667
     64 H4'        -1.1360    1.5450    1.4470 h1        1 7MC      0.208000
     65 H5'        -1.5760   -0.9700    0.2900 h1        1 7MC      0.094500
     66 H5'A       -2.4600   -0.7010    1.6100 h1        1 7MC      0.094500
@<TRIPOS>BOND
     1    1    3 1   
     2    1   14 1   
     3    2   16 1   
     4    2   30 1   
     5    2   39 1   
     6    4   20 1   
     7    4   25 1   
     8    4   36 1   
     9    5    6 1   
    10    6   40 1   
    11    7    8 1   
    12    9   10 1   
    13   10   11 1   
    14   11   41 1   
    15   11   42 1   
    16   12   13 1   
    17   13   15 1   
    18   14   44 1   
    19   16   17 1   
    20   16   45 1   
    21   17   18 1   
    22   17   46 1   
    23   17   47 1   
    24   18   37 1   
    25   18   38 1   
    26   19   21 1   
    27   19   34 1   
    28   19   48 1   
    29   21   22 1   
    30   21   23 1   
    31   21   49 1   
    32   22   50 1   
    33   23   24 1   
    34   23   33 1   
    35   23   51 1   
    36   24   52 1   
    37   25   26 1   
    38   26   27 1   
    39   26   53 1   
    40   26   54 1   
    41   27   28 1   
    42   27   55 1   
    43   27   56 1   
    44   28   29 1   
    45   28   57 1   
    46   28   58 1   
    47   29   59 1   
    48   29   60 1   
    49   30   31 1   
    50   30   32 1   
    51   31   61 1   
    52   31   62 1   
    53   31   63 1   
    54   33   34 1   
    55   33   35 1   
    56   33   64 1   
    57   35   36 1   
    58   35   65 1   
    59   35   66 1   
@<TRIPOS>SUBSTRUCTURE
     1 7MC         1 TEMP              0 ****  ****    0 ROOT
