@<TRIPOS>MOLECULE
7MC
   69    71     1     0     0
SMALL
bcc


@<TRIPOS>ATOM
      1 C           1.9110    0.8250    0.8130 c         1 7MC      0.546100
      2 N           4.2500    1.4010    0.4110 ns        1 7MC     -0.584900
      3 O           1.1510    1.7430    0.5430 o         1 7MC     -0.425100
      4 P          -0.2860   -0.2620   -0.0830 p5        1 7MC      1.502400
      5 N1         -4.3280   -2.8530   -8.8010 nb        1 7MC     -0.775000
      6 C2         -5.0180   -2.4160   -7.7240 ca        1 7MC      0.710900
      7 N3         -4.6320   -1.5890   -6.7140 nb        1 7MC     -0.801000
      8 C4         -3.3450   -1.1610   -6.8610 ca        1 7MC      0.459800
      9 C5         -2.4760   -1.5360   -7.9640 ca        1 7MC     -0.234200
     10 C6         -3.0220   -2.4240   -8.9560 ca        1 7MC      0.781200
     11 N6         -2.2670   -2.8380  -10.0090 nv        1 7MC     -0.933500
     12 N7         -1.2280   -0.9040   -7.8310 nc        1 7MC     -0.511100
     13 C8         -1.3130   -0.1760   -6.7150 cd        1 7MC      0.411700
     14 N8          1.3100   -0.5080    0.5030 ny        1 7MC     -0.686900
     15 N9         -2.5630   -0.3200   -6.0430 na        1 7MC     -0.319000
     16 CA          3.3480    0.8620    1.3800 c3        1 7MC      0.103700
     17 CB          3.2980    1.6200    2.7170 c3        1 7MC     -0.208400
     18 CG          2.2990    0.9560    3.6230 c         1 7MC      0.665100
     19 C1'        -3.1010    0.5070   -4.9980 c3        1 7MC      0.235800
     20 O1P        -0.9700   -1.5410   -0.2510 o         1 7MC     -0.787300
     21 C2'        -3.9300   -0.2950   -3.9420 c3        1 7MC      0.089100
     22 O2'        -5.2440    0.2090   -3.8520 oh        1 7MC     -0.619800
     23 C3'        -3.2380   -0.0240   -2.5910 c3        1 7MC      0.109100
     24 O3'        -4.0760    0.6320   -1.6570 oh        1 7MC     -0.656800
     25 O31        -1.0620    0.6340    0.9870 os        1 7MC     -0.538200
     26 C32        -1.9480   -0.0020    1.8990 c3        1 7MC      0.181400
     27 C33        -3.4050    0.1890    1.4820 c3        1 7MC     -0.141400
     28 C34        -4.0260   -1.1460    1.0830 c3        1 7MC      0.094800
     29 N35        -5.3510   -0.9880    0.4190 nz        1 7MC     -0.844600
     30 C36         4.4370    0.7330   -0.8010 c         1 7MC      0.706100
     31 C37         5.5060    1.2160   -1.7320 c3        1 7MC     -0.172100
     32 O38         3.6880   -0.2400   -1.0410 o         1 7MC     -0.669100
     33 C4'        -2.0040    0.8380   -2.9180 c3        1 7MC      0.083100
     34 O4'        -2.0320    1.1790   -4.3030 os        1 7MC     -0.394600
     35 C5'        -0.6760    0.1270   -2.6180 c3        1 7MC      0.144400
     36 O5'        -0.1220    0.6140   -1.3970 os        1 7MC     -0.540200
     37 OD1         2.2380    1.2420    4.9360 oh        1 7MC     -0.512100
     38 OD2         1.4580    0.1270    3.2360 o         1 7MC     -0.594000
     39 HN          4.7060    2.2640    0.5990 hn        1 7MC      0.354500
     40 HN6        -2.6530   -3.4230  -10.7130 hn        1 7MC      0.462300
     41 HN6A       -1.3540   -2.4710  -10.1250 hn        1 7MC      0.462300
     42 HN8         1.3370   -1.0760    1.3640 hn        1 7MC      0.515800
     43 HA          3.6560   -0.2120    1.5960 h1        1 7MC      0.103700
     44 HB          2.9950    2.6930    2.5640 hc        1 7MC      0.125700
     45 HBA         4.3190    1.6080    3.1900 hc        1 7MC      0.125700
     46 H1'        -3.7300    1.3390   -5.4460 h2        1 7MC      0.110700
     47 H2'        -3.9470   -1.3980   -4.1590 h1        1 7MC      0.103700
     48 HO2'       -5.6980   -0.0290   -4.6760 ho        1 7MC      0.466000
     49 H3'        -2.9610   -0.9930   -2.0910 h1        1 7MC      0.088700
     50 HO3'       -4.5450    1.3450   -2.1200 ho        1 7MC      0.461000
     51 H32        -1.6790   -1.0910    1.9800 h1        1 7MC      0.087700
     52 H32A       -1.7660    0.5170    2.8850 h1        1 7MC      0.087700
     53 H33        -3.4640    0.9300    0.6360 hc        1 7MC      0.098200
     54 H33A       -3.9670    0.6280    2.3500 hc        1 7MC      0.098200
     55 H34        -4.1730   -1.7900    1.9990 hx        1 7MC      0.121200
     56 H34A       -3.3500   -1.6980    0.3620 hx        1 7MC      0.121200
     57 HN35       -5.7710   -1.9090    0.2570 hn        1 7MC      0.470133
     58 HN3A       -5.2370   -0.5060   -0.4890 hn        1 7MC      0.470133
     59 H37         6.5130    1.0940   -1.2590 hc        1 7MC      0.100033
     60 H37A        5.4710    0.6050   -2.6690 hc        1 7MC      0.100033
     61 H37B        5.3540    2.2930   -1.9910 hc        1 7MC      0.100033
     62 H4'        -2.0380    1.8230   -2.3670 h1        1 7MC      0.108700
     63 H5'        -0.7910   -0.9880   -2.5550 h1        1 7MC      0.098200
     64 H5'A        0.0750    0.4050   -3.4140 h1        1 7MC      0.098200
     65 H8         -0.5340    0.4780   -6.3050 h5        1 7MC      0.079800
     66 H2          2.9200    1.8880    5.1880 ho        1 7MC      0.463000
     67 H82         1.9370   -0.9770   -0.1780 hn        1 7MC      0.515800
     68 H353       -5.9810   -0.4330    1.0060 hn        1 7MC      0.470133
     69 H21        -6.0650   -2.7890   -7.6600 h5        1 7MC      0.062100
@<TRIPOS>BOND
     1    1    3 2   
     2    1   14 1   
     3    1   16 1   
     4    2   16 1   
     5    2   30 1   
     6    2   39 1   
     7    4   14 1   
     8    4   20 2   
     9    4   25 1   
    10    4   36 1   
    11    5    6 ar  
    12    5   10 ar  
    13    6    7 ar  
    14    6   69 1   
    15    7    8 ar  
    16    8    9 ar  
    17    8   15 1   
    18    9   10 ar  
    19    9   12 1   
    20   10   11 1   
    21   11   40 1   
    22   11   41 1   
    23   12   13 2   
    24   13   15 1   
    25   13   65 1   
    26   14   42 1   
    27   14   67 1   
    28   15   19 1   
    29   16   17 1   
    30   16   43 1   
    31   17   18 1   
    32   17   44 1   
    33   17   45 1   
    34   18   37 1   
    35   18   38 2   
    36   19   21 1   
    37   19   34 1   
    38   19   46 1   
    39   21   22 1   
    40   21   23 1   
    41   21   47 1   
    42   22   48 1   
    43   23   24 1   
    44   23   33 1   
    45   23   49 1   
    46   24   50 1   
    47   25   26 1   
    48   26   27 1   
    49   26   51 1   
    50   26   52 1   
    51   27   28 1   
    52   27   53 1   
    53   27   54 1   
    54   28   29 1   
    55   28   55 1   
    56   28   56 1   
    57   29   57 1   
    58   29   58 1   
    59   29   68 1   
    60   30   31 1   
    61   30   32 2   
    62   31   59 1   
    63   31   60 1   
    64   31   61 1   
    65   33   34 1   
    66   33   35 1   
    67   33   62 1   
    68   35   36 1   
    69   35   63 1   
    70   35   64 1   
    71   37   66 1   
@<TRIPOS>SUBSTRUCTURE
     1 7MC         1 TEMP              0 ****  ****    0 ROOT
