@<TRIPOS>MOLECULE
7MD
   64    66     1     0     0
SMALL
bcc


@<TRIPOS>ATOM
      1 C          -0.6860    2.1310    0.8960 c         1 7MD      0.643100
      2 N          -0.8590    4.2180    2.2450 n8        1 7MD     -0.899800
      3 O          -1.5900    1.5470    1.5340 o         1 7MD     -0.654100
      4 P          -1.0170    0.0850   -0.5840 p5        1 7MD      1.675500
      5 N1          1.5660   -2.2750   -5.7270 nb        1 7MD     -0.749000
      6 C2          0.9820   -1.7870   -4.6410 ca        1 7MD      0.633400
      7 N3         -0.0690   -0.8880   -4.5900 na        1 7MD     -0.306900
      8 C4         -0.5500   -0.4520   -5.8040 ca        1 7MD      0.041500
      9 C5          0.0270   -0.9310   -7.0490 ca        1 7MD     -0.154900
     10 C6          1.1210   -1.8680   -6.9930 ca        1 7MD      0.819200
     11 N6          1.6980   -2.3400   -8.1120 nv        1 7MD     -0.865500
     12 N7         -0.6330   -0.3340   -8.1320 nc        1 7MD     -0.492100
     13 C8         -1.5580    0.4670   -7.5900 cd        1 7MD      0.436700
     14 N8         -0.2840    1.4420   -0.2350 ns        1 7MD     -0.725900
     15 N9         -1.5640    0.4330   -6.1610 na        1 7MD     -0.168300
     16 CA         -0.0870    3.5000    1.2710 c3        1 7MD      0.153500
     17 CB          1.3710    3.3030    1.7310 c3        1 7MD     -0.189400
     18 CG          2.3300    3.3240    0.5770 c         1 7MD      0.641100
     19 C1'        -2.4100    1.2740   -5.3370 c3        1 7MD      0.252800
     20 O1P        -0.4610   -0.7010   -1.6940 o         1 7MD     -0.874300
     21 C2'        -3.9360    0.9960   -5.5260 c3        1 7MD      0.072100
     22 O2'        -4.4660    2.1800   -6.0830 oh        1 7MD     -0.589800
     23 C3'        -4.4880    0.7540   -4.1050 c3        1 7MD      0.097100
     24 O3'        -5.5730    1.5950   -3.8110 oh        1 7MD     -0.566800
     25 O31        -1.1690   -0.8190    0.7500 os        1 7MD     -0.575200
     26 C32        -1.9890   -1.9600    0.7090 c3        1 7MD      0.201400
     27 C33        -3.2270   -1.7550    1.5830 c3        1 7MD     -0.136400
     28 C34        -2.7930   -1.2560    2.9530 c3        1 7MD      0.098800
     29 N35        -3.9450   -0.8860    3.8270 nz        1 7MD     -0.836600
     30 C4'        -3.2970    0.9920   -3.1560 c3        1 7MD      0.075100
     31 O4'        -2.0980    1.0830   -3.9500 os        1 7MD     -0.443600
     32 C5'        -3.1200   -0.1360   -2.1360 c3        1 7MD      0.172400
     33 O5'        -2.5810    0.3450   -0.9270 os        1 7MD     -0.601200
     34 OD1         2.0690    3.0670   -0.6040 o         1 7MD     -0.534000
     35 OD2         3.6340    3.6260    0.7920 oh        1 7MD     -0.539100
     36 HN         -1.7490    4.4970    1.8870 hn        1 7MD      0.381800
     37 HNA         3.7860    3.8670    1.7200 ho        1 7MD      0.446000
     38 HN6         1.3710   -2.0330   -9.0040 hn        1 7MD      0.485300
     39 HN6A        2.4600   -2.9830   -8.0730 hn        1 7MD      0.485300
     40 HN8         0.4560    1.8370   -0.7860 hn        1 7MD      0.395500
     41 HA         -0.0760    4.1220    0.3190 h1        1 7MD      0.116700
     42 HB          1.4890    2.3300    2.2760 hc        1 7MD      0.102200
     43 HBA         1.6480    4.1290    2.4460 hc        1 7MD      0.102200
     44 H1'        -2.1700    2.3550   -5.5890 h2        1 7MD      0.128700
     45 H2'        -4.1420    0.1170   -6.1930 h1        1 7MD      0.086700
     46 HO2'       -5.4000    2.0130   -6.2810 ho        1 7MD      0.447000
     47 H3'        -4.9020   -0.2870   -4.0040 h1        1 7MD      0.106700
     48 HO3'       -5.3080    2.5120   -3.9860 ho        1 7MD      0.428000
     49 H32        -1.3760   -2.8180    1.1060 h1        1 7MD      0.069700
     50 H32A       -2.3020   -2.1700   -0.3510 h1        1 7MD      0.069700
     51 H33        -3.7690   -2.7330    1.6600 hc        1 7MD      0.079700
     52 H33A       -3.9070   -1.0090    1.0900 hc        1 7MD      0.079700
     53 H34        -2.1940   -2.0500    3.4860 hx        1 7MD      0.132200
     54 H34A       -2.1450   -0.3320    2.8230 hx        1 7MD      0.132200
     55 HN35       -4.4850   -0.1300    3.3930 hn        1 7MD      0.462133
     56 HN3A       -4.5630   -1.6920    3.9660 hn        1 7MD      0.462133
     57 H4'        -3.4070    1.9790   -2.6240 h1        1 7MD      0.097700
     58 H5'        -4.1400   -0.5410   -1.8730 h1        1 7MD      0.075700
     59 H5'A       -2.4660   -0.9510   -2.5520 h1        1 7MD      0.075700
     60 H8         -2.2630    1.1090   -8.1420 h5        1 7MD      0.113800
     61 HN3        -0.9630    3.7140    3.1020 hn        1 7MD      0.381800
     62 H82        -0.4380   -0.5560   -3.7110 hn        1 7MD      0.379700
     63 H353       -3.6010   -0.5680    4.7390 hn        1 7MD      0.462133
     64 H2          1.3660   -2.1290   -3.6470 h5        1 7MD      0.106100
@<TRIPOS>BOND
     1    1    3 2   
     2    1   14 1   
     3    1   16 1   
     4    2   16 1   
     5    2   36 1   
     6    2   61 1   
     7    4   14 1   
     8    4   20 2   
     9    4   25 1   
    10    4   33 1   
    11    5    6 ar  
    12    5   10 ar  
    13    6    7 2   
    14    6   64 1   
    15    7    8 1   
    16    7   62 1   
    17    8    9 ar  
    18    8   15 1   
    19    9   10 ar  
    20    9   12 1   
    21   10   11 1   
    22   11   38 1   
    23   11   39 1   
    24   12   13 2   
    25   13   15 1   
    26   13   60 1   
    27   14   40 1   
    28   15   19 1   
    29   16   17 1   
    30   16   41 1   
    31   17   18 1   
    32   17   42 1   
    33   17   43 1   
    34   18   34 2   
    35   18   35 1   
    36   19   21 1   
    37   19   31 1   
    38   19   44 1   
    39   21   22 1   
    40   21   23 1   
    41   21   45 1   
    42   22   46 1   
    43   23   24 1   
    44   23   30 1   
    45   23   47 1   
    46   24   48 1   
    47   25   26 1   
    48   26   27 1   
    49   26   49 1   
    50   26   50 1   
    51   27   28 1   
    52   27   51 1   
    53   27   52 1   
    54   28   29 1   
    55   28   53 1   
    56   28   54 1   
    57   29   55 1   
    58   29   56 1   
    59   29   63 1   
    60   30   31 1   
    61   30   32 1   
    62   30   57 1   
    63   32   33 1   
    64   32   58 1   
    65   32   59 1   
    66   35   37 1   
@<TRIPOS>SUBSTRUCTURE
     1 7MD         1 TEMP              0 ****  ****    0 ROOT
