@<TRIPOS>MOLECULE
7MD
   61    63     1     0     0
SMALL
bcc


@<TRIPOS>ATOM
      1 C          -1.9810    1.9740   -0.1420 c         1 7MD      0.640100
      2 N          -1.6710    3.9970   -1.5560 n3        1 7MD     -0.893800
      3 O          -1.0830    1.3210   -0.7170 o         1 7MD     -0.645100
      4 P          -1.9780   -0.0970    1.3360 p5        1 7MD      1.615500
      5 N1          6.7190    1.3590   -0.3230 nb        1 7MD     -0.801000
      6 C2          6.6090    0.0030   -0.3440 ca        1 7MD      0.670900
      7 N3          5.5100   -0.7840   -0.3760 nb        1 7MD     -0.755000
      8 C4          4.3480   -0.0610   -0.3860 ca        1 7MD      0.431800
      9 C5          4.3010    1.3970   -0.3680 ca        1 7MD     -0.212200
     10 C6          5.5550    2.0900   -0.3490 ca        1 7MD      0.742200
     11 N6          5.5820    3.4650   -0.4000 nh        1 7MD     -0.953500
     12 N7          2.9660    1.8320   -0.3770 nc        1 7MD     -0.573100
     13 C8          2.2260    0.7130   -0.4000 cd        1 7MD      0.461700
     14 N8         -2.4480    1.3810    1.0170 n         1 7MD     -0.728900
     15 N9          3.0080   -0.4710   -0.3990 na        1 7MD     -0.291000
     16 CA         -2.5580    3.3050   -0.6440 c3        1 7MD      0.127500
     17 CB         -3.9390    3.0170   -1.2460 c3        1 7MD     -0.200400
     18 CG         -4.8980    2.4280   -0.2010 c         1 7MD      0.899600
     19 C1'         2.5700   -1.8430   -0.5260 c3        1 7MD      0.219800
     20 O1P        -2.2130   -0.5820    2.7020 o         1 7MD     -0.849300
     21 C2'         3.0780   -2.7800    0.6230 c3        1 7MD      0.077100
     22 O2'         3.7730   -3.8730    0.0640 oh        1 7MD     -0.592800
     23 C3'         1.7940   -3.3080    1.3050 c3        1 7MD      0.127100
     24 O3'         1.5760   -4.6810    1.0950 oh        1 7MD     -0.576800
     25 O31        -2.5880   -1.1440    0.2690 os        1 7MD     -0.569200
     26 C32        -4.0030   -1.2170    0.3190 c3        1 7MD      0.124400
     27 C33        -4.4840   -2.1710   -0.7580 c3        1 7MD     -0.068400
     28 C34        -5.9430   -1.8490   -1.0780 c3        1 7MD      0.135800
     29 N35        -6.5130   -2.7250   -2.0760 n3        1 7MD     -0.911800
     30 C4'         0.6620   -2.4430    0.7080 c3        1 7MD      0.068100
     31 O4'         1.1470   -1.9220   -0.5390 os        1 7MD     -0.370600
     32 C5'         0.2830   -1.3210    1.6820 c3        1 7MD      0.156400
     33 O5'        -0.3880   -0.2850    1.0210 os        1 7MD     -0.543200
     34 OD1        -5.6540    1.4810   -0.5590 o         1 7MD     -0.842300
     35 OD2        -4.8760    2.8940    0.9790 o         1 7MD     -0.842300
     36 HN         -0.7370    4.0030   -1.1920 hn        1 7MD      0.348800
     37 HNA        -1.6610    3.5380   -2.4470 hn        1 7MD      0.348800
     38 HN6         6.4310    3.9440   -0.2240 hn        1 7MD      0.437800
     39 HN6A        4.7280    3.9450   -0.2540 hn        1 7MD      0.437800
     40 HN8        -3.1880    1.8620    1.5050 hn        1 7MD      0.401500
     41 HA         -2.7120    3.9750    0.2580 h1        1 7MD      0.104700
     42 HB         -4.3830    3.9750   -1.6150 hc        1 7MD      0.053200
     43 HBA        -3.8520    2.3110   -2.1090 hc        1 7MD      0.053200
     44 H1'         2.9060   -2.2320   -1.5350 h2        1 7MD      0.093700
     45 H2'         3.7240   -2.2360    1.3620 h1        1 7MD      0.074700
     46 HO2'        4.6280   -3.5310   -0.2330 ho        1 7MD      0.426000
     47 H3'         1.8530   -3.1980    2.4220 h1        1 7MD      0.093700
     48 HO3'        1.7130   -4.8600    0.1550 ho        1 7MD      0.418000
     49 H32        -4.2870   -1.5780    1.3450 h1        1 7MD      0.068200
     50 H32A       -4.4330   -0.1870    0.1420 h1        1 7MD      0.068200
     51 H33        -3.8480   -2.0470   -1.6730 hc        1 7MD      0.047200
     52 H33A       -4.3710   -3.2290   -0.4100 hc        1 7MD      0.047200
     53 H34        -6.5250   -1.8760   -0.1080 h1        1 7MD      0.054200
     54 H34A       -6.0000   -0.7850   -1.4610 h1        1 7MD      0.054200
     55 HN35       -6.5260   -3.6710   -1.7490 hn        1 7MD      0.334300
     56 HN3A       -7.4520   -2.4420   -2.2780 hn        1 7MD      0.334300
     57 H4'        -0.2370   -3.0530    0.4210 h1        1 7MD      0.111700
     58 H5'        -0.3490   -1.7410    2.5140 h1        1 7MD      0.062200
     59 H5'A        1.2240   -0.8690    2.1080 h1        1 7MD      0.062200
     60 H2          7.5800   -0.5370   -0.3320 h5        1 7MD      0.040100
     61 H8          1.1150    0.6510   -0.4030 h5        1 7MD      0.145800
@<TRIPOS>BOND
     1    1    3 2   
     2    1   14 1   
     3    1   16 1   
     4    2   16 1   
     5    2   36 1   
     6    2   37 1   
     7    4   14 1   
     8    4   20 2   
     9    4   25 1   
    10    4   33 1   
    11    5    6 ar  
    12    5   10 ar  
    13    6    7 ar  
    14    6   60 1   
    15    7    8 ar  
    16    8    9 ar  
    17    8   15 1   
    18    9   10 ar  
    19    9   12 1   
    20   10   11 1   
    21   11   38 1   
    22   11   39 1   
    23   12   13 2   
    24   13   15 1   
    25   13   61 1   
    26   14   40 1   
    27   15   19 1   
    28   16   17 1   
    29   16   41 1   
    30   17   18 1   
    31   17   42 1   
    32   17   43 1   
    33   18   34 1   
    34   18   35 1   
    35   19   21 1   
    36   19   31 1   
    37   19   44 1   
    38   21   22 1   
    39   21   23 1   
    40   21   45 1   
    41   22   46 1   
    42   23   24 1   
    43   23   30 1   
    44   23   47 1   
    45   24   48 1   
    46   25   26 1   
    47   26   27 1   
    48   26   49 1   
    49   26   50 1   
    50   27   28 1   
    51   27   51 1   
    52   27   52 1   
    53   28   29 1   
    54   28   53 1   
    55   28   54 1   
    56   29   55 1   
    57   29   56 1   
    58   30   31 1   
    59   30   32 1   
    60   30   57 1   
    61   32   33 1   
    62   32   58 1   
    63   32   59 1   
@<TRIPOS>SUBSTRUCTURE
     1 7MD         1 TEMP              0 ****  ****    0 ROOT
