@<TRIPOS>MOLECULE
7MD
   65    67     1     0     0
SMALL
bcc


@<TRIPOS>ATOM
      1 C           1.7880    0.3640    1.1880 c         1 7MD      0.560100
      2 N           4.0170    1.1970    1.4430 n3        1 7MD     -0.946800
      3 O           1.0120    1.2780    0.9470 o         1 7MD     -0.430100
      4 P          -0.1470   -0.6050   -0.2960 p5        1 7MD      1.504400
      5 N1         -4.3460    1.5840   -9.9040 nb        1 7MD     -0.661000
      6 C2         -4.9450    1.7180   -8.6850 ca        1 7MD      0.688900
      7 N3         -4.3640    1.7700   -7.4570 nb        1 7MD     -0.657000
      8 C4         -3.0120    1.6740   -7.4850 ca        1 7MD      0.451800
      9 C5         -2.2350    1.5190   -8.7350 ca        1 7MD     -0.131200
     10 C6         -2.9930    1.4880   -9.9210 ca        1 7MD      0.542200
     11 N6         -2.2950    1.3610  -11.2130 n4        1 7MD     -0.819300
     12 N7         -0.8680    1.4530   -8.4430 nc        1 7MD     -0.563100
     13 C8         -0.7900    1.5680   -7.1060 cd        1 7MD      0.518700
     14 N8          1.3800   -0.8920    0.4850 n4        1 7MD     -0.679900
     15 N9         -2.0470    1.6820   -6.4640 na        1 7MD     -0.280000
     16 CA          3.0550    0.3500    2.0710 c3        1 7MD      0.188500
     17 CB          2.6070    0.7250    3.4980 c3        1 7MD     -0.236400
     18 CG          1.5000   -0.1700    3.9680 c         1 7MD      0.670100
     19 C1'        -2.3010    2.0470   -5.0830 c3        1 7MD      0.224800
     20 O1P        -0.6030   -1.8660   -0.8600 o         1 7MD     -0.757300
     21 C2'        -3.4280    1.2140   -4.3830 c3        1 7MD      0.090100
     22 O2'        -4.4370    2.0990   -3.9570 oh        1 7MD     -0.594800
     23 C3'        -2.7570    0.6160   -3.1260 c3        1 7MD      0.120100
     24 O3'        -3.4800    0.8050   -1.9330 oh        1 7MD     -0.606800
     25 O31        -1.1050   -0.0220    0.8410 os        1 7MD     -0.531200
     26 C32        -1.9810   -0.9260    1.5000 c3        1 7MD      0.159400
     27 C33        -3.3750   -0.3040    1.5030 c3        1 7MD     -0.132400
     28 C34        -4.3120   -1.2200    2.2800 c3        1 7MD      0.101800
     29 N35        -5.6860   -0.6590    2.4270 n4        1 7MD     -0.836600
     30 C4'        -1.3760    1.3000   -3.0480 c3        1 7MD      0.081100
     31 O4'        -1.0870    1.8680   -4.3360 os        1 7MD     -0.409600
     32 C5'        -0.2240    0.3520   -2.7050 c3        1 7MD      0.155400
     33 O5'         0.1520    0.5530   -1.3440 os        1 7MD     -0.540200
     34 OD1         0.8130   -0.8900    3.2200 o         1 7MD     -0.615000
     35 OD2         1.1400   -0.2290    5.2630 oh        1 7MD     -0.520100
     36 HN          3.9040    2.1690    1.6460 hn        1 7MD      0.422300
     37 HNA         4.9590    0.8870    1.5600 hn        1 7MD      0.422300
     38 HN6        -1.6020    0.6030  -11.1430 hn        1 7MD      0.486800
     39 HN6A       -2.9570    1.1570  -11.9770 hn        1 7MD      0.486800
     40 HN8         1.3100   -1.6400    1.1930 hn        1 7MD      0.498800
     41 HA          3.4590   -0.7080    2.1060 h1        1 7MD      0.100700
     42 HB          2.2440    1.7900    3.5360 hc        1 7MD      0.125700
     43 HBA         3.4930    0.6400    4.1860 hc        1 7MD      0.125700
     44 H1'        -2.5550    3.1530   -5.0460 h2        1 7MD      0.119700
     45 H2'        -3.8390    0.4030   -5.0380 h1        1 7MD      0.094700
     46 HO2'       -5.0860    2.1790   -4.6710 ho        1 7MD      0.453000
     47 H3'        -2.6630   -0.5010   -3.2320 h1        1 7MD      0.103700
     48 HO3'       -3.8650    1.6950   -1.9430 ho        1 7MD      0.443000
     49 H32        -1.9840   -1.9180    0.9660 h1        1 7MD      0.091200
     50 H32A       -1.6010   -1.0410    2.5580 h1        1 7MD      0.091200
     51 H33        -3.7260   -0.1640    0.4440 hc        1 7MD      0.094700
     52 H33A       -3.3120    0.7120    1.9770 hc        1 7MD      0.094700
     53 H34        -3.9060   -1.3990    3.3200 hx        1 7MD      0.121700
     54 H34A       -4.4040   -2.2170    1.7550 hx        1 7MD      0.121700
     55 HN35       -6.2750   -1.3160    2.9550 hn        1 7MD      0.470800
     56 HN3A       -5.6550    0.2360    2.9290 hn        1 7MD      0.470800
     57 H4'        -1.3980    2.1540   -2.3110 h1        1 7MD      0.104700
     58 H5'         0.6820    0.6360   -3.3160 h1        1 7MD      0.098700
     59 H5'A       -0.4940   -0.7260   -2.8700 h1        1 7MD      0.098700
     60 H8          0.1460    1.5770   -6.5190 h5        1 7MD      0.115800
     61 HN3         1.7190    0.3250    5.8170 ho        1 7MD      0.468000
     62 H63        -1.8080    2.2460  -11.4130 hn        1 7MD      0.486800
     63 H82         2.1200   -1.1730   -0.1650 hn        1 7MD      0.498800
     64 H353       -6.1090   -0.5020    1.5050 hn        1 7MD      0.470800
     65 H2         -6.0590    1.7980   -8.7120 h5        1 7MD      0.109100
@<TRIPOS>BOND
     1    1    3 2   
     2    1   14 1   
     3    1   16 1   
     4    2   16 1   
     5    2   36 1   
     6    2   37 1   
     7    4   14 1   
     8    4   20 2   
     9    4   25 1   
    10    4   33 1   
    11    5    6 ar  
    12    5   10 ar  
    13    6    7 ar  
    14    6   65 1   
    15    7    8 ar  
    16    8    9 ar  
    17    8   15 1   
    18    9   10 ar  
    19    9   12 1   
    20   10   11 1   
    21   11   38 1   
    22   11   39 1   
    23   11   62 1   
    24   12   13 2   
    25   13   15 1   
    26   13   60 1   
    27   14   40 1   
    28   14   63 1   
    29   15   19 1   
    30   16   17 1   
    31   16   41 1   
    32   17   18 1   
    33   17   42 1   
    34   17   43 1   
    35   18   34 2   
    36   18   35 1   
    37   19   21 1   
    38   19   31 1   
    39   19   44 1   
    40   21   22 1   
    41   21   23 1   
    42   21   45 1   
    43   22   46 1   
    44   23   24 1   
    45   23   30 1   
    46   23   47 1   
    47   24   48 1   
    48   25   26 1   
    49   26   27 1   
    50   26   49 1   
    51   26   50 1   
    52   27   28 1   
    53   27   51 1   
    54   27   52 1   
    55   28   29 1   
    56   28   53 1   
    57   28   54 1   
    58   29   55 1   
    59   29   56 1   
    60   29   64 1   
    61   30   31 1   
    62   30   32 1   
    63   30   57 1   
    64   32   33 1   
    65   32   58 1   
    66   32   59 1   
    67   35   61 1   
@<TRIPOS>SUBSTRUCTURE
     1 7MD         1 TEMP              0 ****  ****    0 ROOT
