@<TRIPOS>MOLECULE
7MD
   61    54     1     0     0
SMALL
bcc


@<TRIPOS>ATOM
      1 C           3.8670   -0.2050   -0.4690 c1        1 7MD      0.317000
      2 N           5.7040    0.8710   -1.5810 n3        1 7MD     -0.337000
      3 O           3.3060    0.8580   -0.3200 o         1 7MD     -0.361000
      4 P           1.3960   -1.3880   -0.4080 p3        1 7MD      2.694000
      5 N1         -4.2250    4.2140   -0.5820 n1        1 7MD     -0.270000
      6 C2         -2.9730    4.3450   -0.0440 c1        1 7MD      0.017000
      7 N3         -2.4620    3.3520    0.7630 n1        1 7MD     -0.198000
      8 C4         -3.2020    2.2360    1.0270 c1        1 7MD      0.078000
      9 C5         -4.4590    2.1020    0.4880 c1        1 7MD     -0.237000
     10 C6         -4.9700    3.0940   -0.3180 c1        1 7MD      0.224000
     11 N6         -6.2320    3.3260   -0.9000 n3        1 7MD     -0.345000
     12 N7         -4.9700    0.9150    0.9050 n1        1 7MD     -0.155000
     13 C8         -4.0430    0.3090    1.7000 c1        1 7MD     -0.047000
     14 N8          3.0750   -1.4460   -0.5660 n3        1 7MD     -0.904000
     15 N9         -2.9480    1.1290    1.7740 n1        1 7MD     -0.155000
     16 CA          5.3400   -0.2380   -0.7250 c2        1 7MD     -0.004000
     17 CB          6.0900   -0.1300    0.6060 c3        1 7MD     -0.277000
     18 CG          7.5010   -0.6870    0.4460 c2        1 7MD      0.333000
     19 C1'        -2.2020    1.3630    3.0170 c2        1 7MD      0.117000
     20 O1P         0.8900   -2.7260    0.1200 o         1 7MD     -1.161000
     21 C2'        -2.0620    0.0430    3.8220 c3        1 7MD      0.004000
     22 O2'        -2.3390    0.2530    5.1000 oh        1 7MD     -0.305000
     23 C3'        -0.5420   -0.4040    3.6530 c3        1 7MD     -0.009000
     24 O3'         0.2100   -0.1540    4.9160 oh        1 7MD     -0.342000
     25 O31         0.7310   -1.0970   -1.8480 o         1 7MD     -0.736000
     26 C32         0.1460   -2.1960   -2.5610 c3        1 7MD      0.026000
     27 C33        -0.1090   -1.7950   -3.9870 c3        1 7MD     -0.178000
     28 C34        -1.4020   -2.5390   -4.5210 c3        1 7MD     -0.079000
     29 N35        -1.6020   -2.2190   -5.9190 n3        1 7MD     -0.347000
     30 C4'        -0.0890    0.3190    2.7310 c3        1 7MD     -0.047000
     31 O4'        -0.9960    1.7220    2.7540 os        1 7MD     -0.263000
     32 C5'        -0.2400   -0.3680    1.4120 c3        1 7MD      0.031000
     33 O5'         0.9810   -0.2040    0.6340 os        1 7MD     -0.713000
     34 OD1         8.4330    0.0700    0.1190 o         1 7MD     -0.566500
     35 OD2         7.7400   -1.8840    0.7430 o         1 7MD     -0.566500
     36 HN          6.4120    0.6260   -2.1180 hn        1 7MD      0.171000
     37 HNA         4.9700    1.1050   -2.1210 hn        1 7MD      0.171000
     38 H2         -2.4300    5.1620   -0.2360 ha        1 7MD      0.185000
     39 HN6        -6.3040    3.4320   -1.8050 hn        1 7MD      0.231500
     40 HN6A       -6.9940    3.3380   -0.3690 hn        1 7MD      0.231500
     41 H8         -4.1070   -0.6030    2.0670 DU        1 7MD      0.201000
     42 HN8         3.4770   -2.2200   -0.8130 hn        1 7MD      0.272000
     43 HA          5.5760   -1.0810   -1.1660 h4        1 7MD      0.118000
     44 HB          6.1390    0.8190    0.8800 hc        1 7MD      0.080000
     45 HBA         5.6100   -0.6450    1.2940 hc        1 7MD      0.080000
     46 H1'        -2.6580    2.0590    3.5700 h4        1 7MD      0.170000
     47 H2'        -2.6660   -0.6520    3.4510 h1        1 7MD      0.130000
     48 HO2'       -2.7690   -0.4280    5.4190 ho        1 7MD      0.229000
     49 H3'        -0.4910   -1.3300    3.4090 h1        1 7MD      0.110000
     50 HO3'        0.4660   -0.9490    5.2810 ho        1 7MD      0.266000
     51 H32        -0.6970   -2.4460   -2.1370 h1        1 7MD      0.089000
     52 H32A        0.7520   -2.9500   -2.5430 h1        1 7MD      0.089000
     53 H33        -0.2470   -0.8130   -4.0350 hc        1 7MD      0.093000
     54 H33A        0.6670   -2.0450   -4.5420 hc        1 7MD      0.093000
     55 H34        -2.1610   -2.2530   -4.0180 h1        1 7MD      0.066500
     56 H34A       -1.2920   -3.4820   -4.4220 h1        1 7MD      0.066500
     57 HN35       -2.3490   -1.7060   -6.0070 hn        1 7MD      0.143000
     58 HN3A       -1.7050   -3.0030   -6.4050 hn        1 7MD      0.143000
     59 H4'         0.8490    0.5220    2.8980 h1        1 7MD      0.142000
     60 H5'        -0.9810    0.0190    0.9330 h1        1 7MD      0.096500
     61 H5'A       -0.4070   -1.3160    1.5560 h1        1 7MD      0.096500
@<TRIPOS>BOND
     1    1    3 1   
     2    1   14 1   
     3    2   16 1   
     4    2   36 1   
     5    2   37 1   
     6    4   14 1   
     7    4   20 1   
     8    4   33 1   
     9    5    6 1   
    10    6   38 1   
    11    7    8 1   
    12    9   10 1   
    13   10   11 1   
    14   11   39 1   
    15   11   40 1   
    16   12   13 1   
    17   13   15 1   
    18   14   42 1   
    19   16   17 1   
    20   16   43 1   
    21   17   18 1   
    22   17   44 1   
    23   17   45 1   
    24   18   34 1   
    25   18   35 1   
    26   19   21 1   
    27   19   31 1   
    28   19   46 1   
    29   21   22 1   
    30   21   23 1   
    31   21   47 1   
    32   22   48 1   
    33   23   24 1   
    34   23   30 1   
    35   23   49 1   
    36   24   50 1   
    37   25   26 1   
    38   26   27 1   
    39   26   51 1   
    40   26   52 1   
    41   27   28 1   
    42   27   53 1   
    43   27   54 1   
    44   28   29 1   
    45   28   55 1   
    46   28   56 1   
    47   29   57 1   
    48   29   58 1   
    49   30   31 1   
    50   30   32 1   
    51   30   59 1   
    52   32   33 1   
    53   32   60 1   
    54   32   61 1   
@<TRIPOS>SUBSTRUCTURE
     1 7MD         1 TEMP              0 ****  ****    0 ROOT
