@<TRIPOS>MOLECULE
7MD
   64    64     1     0     0
SMALL
bcc


@<TRIPOS>ATOM
      1 C           1.1920    0.4780    0.9170 c         1 7MD      0.484100
      2 N           3.6230    0.7690    1.3030 n3        1 7MD     -0.928800
      3 O           0.8040    1.5950    1.2610 o         1 7MD     -0.472100
      4 P          -1.1090    0.8790   -0.1650 p2        1 7MD      0.670800
      5 N1         -3.1700    2.6710   -9.9590 nb        1 7MD     -0.767000
      6 C2         -3.6590    1.4490   -9.6650 ca        1 7MD      0.720900
      7 N3         -3.7130    0.7910   -8.4690 nb        1 7MD     -0.797000
      8 C4         -3.1790    1.5230   -7.4550 ca        1 7MD      0.470800
      9 C5         -2.6220    2.8580   -7.6070 ca        1 7MD     -0.244200
     10 C6         -2.6280    3.4240   -8.9300 ca        1 7MD      0.787200
     11 N6         -2.1130    4.6590   -9.1630 nh        1 7MD     -0.926500
     12 N7         -2.1870    3.3440   -6.3620 nc        1 7MD     -0.490100
     13 C8         -2.4560    2.3750   -5.4860 cd        1 7MD      0.386700
     14 N8          0.2080   -0.2260    0.0720 n4        1 7MD     -0.527900
     15 N9         -3.0120    1.2040   -6.0870 na        1 7MD     -0.326000
     16 CA          2.5590   -0.1710    1.2680 c3        1 7MD      0.193500
     17 CB          2.3920   -0.9090    2.6120 c3        1 7MD     -0.207400
     18 CG          1.6780   -2.2170    2.4500 c         1 7MD      0.654100
     19 C1'        -3.7180    0.1430   -5.4300 c3        1 7MD      0.238800
     20 O1P        -2.0240    0.7070    0.9340 o         1 7MD     -0.378500
     21 C2'        -3.4380   -1.2740   -6.0410 c3        1 7MD      0.077100
     22 O2'        -4.6620   -1.9860   -6.0700 oh        1 7MD     -0.655800
     23 C3'        -2.5160   -1.9760   -5.0140 c3        1 7MD      0.111100
     24 O3'        -3.1410   -3.1390   -4.4920 oh        1 7MD     -0.640800
     25 O31        -2.4240   -1.1810   -0.4590 o         1 7MD     -0.605100
     26 C32        -3.4330   -1.8890   -0.3660 c         1 7MD      0.632900
     27 C33        -4.6880   -1.5640   -1.1330 c3        1 7MD     -0.248400
     28 C34        -5.0190   -2.6930   -2.1040 c3        1 7MD      0.111800
     29 N35        -5.5500   -2.2070   -3.4060 n4        1 7MD     -0.832600
     30 C4'        -2.3730   -0.9870   -3.8430 c3        1 7MD      0.083100
     31 O4'        -3.3560    0.0410   -4.0350 os        1 7MD     -0.453600
     32 C5'        -0.9720   -0.3910   -3.7240 c3        1 7MD      0.115400
     33 O5'        -0.8860    0.3890   -2.5390 oh        1 7MD     -0.650800
     34 OD1         1.7850   -3.1760    3.3950 oh        1 7MD     -0.525100
     35 OD2         0.9480   -2.5320    1.4990 o         1 7MD     -0.574000
     36 HN          3.5610    1.4550    2.0230 hn        1 7MD      0.414800
     37 HNA         3.8780    1.1450    0.4170 hn        1 7MD      0.414800
     38 HN6        -2.1260    5.0540  -10.0750 hn        1 7MD      0.465300
     39 HN6A       -1.7540    5.1890   -8.4070 hn        1 7MD      0.465300
     40 HN8        -0.0830   -1.1060    0.5220 hn        1 7MD      0.480300
     41 HA          2.7840   -0.9380    0.4620 h1        1 7MD      0.106700
     42 HB          3.4170   -1.1010    3.0440 hc        1 7MD      0.122200
     43 HBA         1.8330   -0.2740    3.3520 hc        1 7MD      0.122200
     44 H1'        -4.8310    0.3590   -5.4160 h2        1 7MD      0.091700
     45 H2'        -2.9620   -1.2340   -7.0560 h1        1 7MD      0.133700
     46 HO2'       -5.0360   -1.8810   -6.9580 ho        1 7MD      0.466000
     47 H3'        -1.5250   -2.2350   -5.4710 h1        1 7MD      0.099700
     48 HO3'       -3.1980   -3.7780   -5.2160 ho        1 7MD      0.450000
     49 H32        -1.3450    1.2230   -2.7130 ho        1 7MD      0.429000
     50 H32A       -3.4660   -2.7850    0.2910 h4        1 7MD      0.057200
     51 H33        -5.5240   -1.4280   -0.3920 hc        1 7MD      0.110200
     52 H33A       -4.5520   -0.5790   -1.6640 hc        1 7MD      0.110200
     53 H34        -5.7850   -3.3880   -1.6510 hx        1 7MD      0.121700
     54 H34A       -4.0890   -3.2960   -2.3420 hx        1 7MD      0.121700
     55 HN35       -6.5170   -1.8870   -3.3160 hn        1 7MD      0.472467
     56 HN3A       -4.9650   -1.4330   -3.7660 hn        1 7MD      0.472467
     57 H4'        -2.6530   -1.4670   -2.8610 h1        1 7MD      0.078700
     58 H5'        -0.2170   -1.2110   -3.5940 h1        1 7MD      0.083700
     59 H5'A       -0.7200    0.2310   -4.6220 h1        1 7MD      0.083700
     60 H8         -2.2760    2.4150   -4.4080 h5        1 7MD      0.059800
     61 HN3         2.3850   -2.9010    4.1090 ho        1 7MD      0.458000
     62 H82         0.6060   -0.4600   -0.8380 hn        1 7MD      0.480300
     63 H353       -5.4940   -2.9610   -4.1090 hn        1 7MD      0.472467
     64 H2         -4.0870    0.8940  -10.5310 h5        1 7MD      0.070100
@<TRIPOS>BOND
     1    1    3 2   
     2    1   14 1   
     3    1   16 1   
     4    2   16 1   
     5    2   36 1   
     6    2   37 1   
     7    4   14 1   
     8    4   20 2   
     9    5    6 ar  
    10    5   10 ar  
    11    6    7 ar  
    12    6   64 1   
    13    7    8 ar  
    14    8    9 ar  
    15    8   15 1   
    16    9   10 ar  
    17    9   12 1   
    18   10   11 1   
    19   11   38 1   
    20   11   39 1   
    21   12   13 2   
    22   13   15 1   
    23   13   60 1   
    24   14   40 1   
    25   14   62 1   
    26   15   19 1   
    27   16   17 1   
    28   16   41 1   
    29   17   18 1   
    30   17   42 1   
    31   17   43 1   
    32   18   34 1   
    33   18   35 2   
    34   19   21 1   
    35   19   31 1   
    36   19   44 1   
    37   21   22 1   
    38   21   23 1   
    39   21   45 1   
    40   22   46 1   
    41   23   24 1   
    42   23   30 1   
    43   23   47 1   
    44   24   48 1   
    45   25   26 2   
    46   26   27 1   
    47   26   50 1   
    48   27   28 1   
    49   27   51 1   
    50   27   52 1   
    51   28   29 1   
    52   28   53 1   
    53   28   54 1   
    54   29   55 1   
    55   29   56 1   
    56   29   63 1   
    57   30   31 1   
    58   30   32 1   
    59   30   57 1   
    60   32   33 1   
    61   32   58 1   
    62   32   59 1   
    63   33   49 1   
    64   34   61 1   
@<TRIPOS>SUBSTRUCTURE
     1 7MD         1 TEMP              0 ****  ****    0 ROOT
