@<TRIPOS>MOLECULE
7ME
   27    28     1     0     0
SMALL
bcc


@<TRIPOS>ATOM
      1 N1         -0.0390   -0.0320   -0.0640 nb        1 7ME     -0.783000
      2 C2          1.3450   -0.0350   -0.0220 ca        1 7ME      0.890900
      3 N3          2.1090   -0.0680    1.1300 nb        1 7ME     -0.815000
      4 C4          1.4280   -0.0890    2.3150 ca        1 7ME      0.695200
      5 C5         -0.7160   -0.0860    3.6650 c3        1 7ME     -0.007100
      6 C6         -2.2110   -0.3000    3.5490 c3        1 7ME     -0.072400
      7 C7         -2.7900    0.4790    2.3820 c3        1 7ME     -0.066700
      8 C8         -2.1870   -0.0280    1.0820 c3        1 7ME     -0.132700
      9 C13        -4.2970    0.3570    2.3440 c3        1 7ME     -0.091100
     10 C4A        -0.0090   -0.0730    2.3640 ca        1 7ME     -0.405900
     11 C8A        -0.6830   -0.0370    1.1250 ca        1 7ME      0.509600
     12 NA2         2.0310    0.0820   -1.2420 nh        1 7ME     -0.922500
     13 NA4         2.1690   -0.1940    3.4940 nh        1 7ME     -0.934500
     14 H5         -0.2990   -0.9000    4.3210 hc        1 7ME      0.040700
     15 H5A        -0.5260    0.8930    4.1880 hc        1 7ME      0.040700
     16 H6         -2.7060    0.0200    4.5020 hc        1 7ME      0.044200
     17 H6A        -2.4280   -1.3910    3.4090 hc        1 7ME      0.044200
     18 H7         -2.5190    1.5660    2.5050 hc        1 7ME      0.055700
     19 H8         -2.5350   -1.0800    0.8880 hc        1 7ME      0.067700
     20 H8A        -2.5520    0.6070    0.2310 hc        1 7ME      0.067700
     21 H13        -4.7420    0.7670    3.2830 hc        1 7ME      0.035700
     22 H13A       -4.7110    0.9240    1.4760 hc        1 7ME      0.035700
     23 H13B       -4.6040   -0.7130    2.2470 hc        1 7ME      0.035700
     24 HNA2        1.5140   -0.1670   -2.0540 hn        1 7ME      0.420300
     25 HNAA        2.9840   -0.2020   -1.2340 hn        1 7ME      0.420300
     26 HNA4        1.7350    0.2030    4.2960 hn        1 7ME      0.412800
     27 HNAB        3.1490   -0.0360    3.4250 hn        1 7ME      0.412800
@<TRIPOS>BOND
     1    1    2 ar  
     2    1   11 ar  
     3    2    3 ar  
     4    2   12 1   
     5    3    4 ar  
     6    4   10 ar  
     7    4   13 1   
     8    5    6 1   
     9    5   10 1   
    10    5   14 1   
    11    5   15 1   
    12    6    7 1   
    13    6   16 1   
    14    6   17 1   
    15    7    8 1   
    16    7    9 1   
    17    7   18 1   
    18    8   11 1   
    19    8   19 1   
    20    8   20 1   
    21    9   21 1   
    22    9   22 1   
    23    9   23 1   
    24   10   11 ar  
    25   12   24 1   
    26   12   25 1   
    27   13   26 1   
    28   13   27 1   
@<TRIPOS>SUBSTRUCTURE
     1 7ME         1 TEMP              0 ****  ****    0 ROOT
