@<TRIPOS>MOLECULE
7ME
   27    28     1     0     0
SMALL
bcc


@<TRIPOS>ATOM
      1 N1         -0.9450   -1.5240   -0.0530 nb        1 7ME     -0.783000
      2 C2         -2.1990   -0.9370   -0.0140 ca        1 7ME      0.890900
      3 N3         -2.4430    0.4210    0.0680 nb        1 7ME     -0.815000
      4 C4         -1.3470    1.2390    0.0750 ca        1 7ME      0.696200
      5 C5          1.1530    1.6330   -0.0590 c3        1 7ME     -0.005100
      6 C6          2.4660    0.9450   -0.3720 c3        1 7ME     -0.073400
      7 C7          2.5720   -0.3880    0.3460 c3        1 7ME     -0.066700
      8 C8          1.4790   -1.3210   -0.1510 c3        1 7ME     -0.132700
      9 C13         3.9330   -1.0120    0.1290 c3        1 7ME     -0.091100
     10 C4A        -0.0120    0.7180   -0.0350 ca        1 7ME     -0.406900
     11 C8A         0.1170   -0.6860   -0.0720 ca        1 7ME      0.510600
     12 NA2        -3.3140   -1.7820   -0.1320 nh        1 7ME     -0.921500
     13 NA4        -1.5550    2.6050    0.2720 nh        1 7ME     -0.934500
     14 H5          1.2330    2.1410    0.9430 hc        1 7ME      0.039700
     15 H5A         0.9930    2.4390   -0.8280 hc        1 7ME      0.039700
     16 H6          2.5540    0.7780   -1.4780 hc        1 7ME      0.043200
     17 H6A         3.3140    1.6110   -0.0650 hc        1 7ME      0.043200
     18 H7          2.4250   -0.2150    1.4490 hc        1 7ME      0.056700
     19 H8          1.6730   -1.5940   -1.2240 hc        1 7ME      0.068200
     20 H8A         1.5040   -2.2720    0.4460 hc        1 7ME      0.068200
     21 H13         4.7320   -0.3440    0.5310 hc        1 7ME      0.035700
     22 H13A        3.9960   -1.9970    0.6520 hc        1 7ME      0.035700
     23 H13B        4.1240   -1.1760   -0.9590 hc        1 7ME      0.035700
     24 HNA2       -3.1560   -2.7390    0.0890 hn        1 7ME      0.419800
     25 HNAA       -4.1790   -1.4070    0.1840 hn        1 7ME      0.419800
     26 HNA4       -2.4870    2.9390    0.1660 hn        1 7ME      0.413300
     27 HNAB       -0.8500    3.1980   -0.1010 hn        1 7ME      0.413300
@<TRIPOS>BOND
     1    1    2 ar  
     2    1   11 ar  
     3    2    3 ar  
     4    2   12 1   
     5    3    4 ar  
     6    4   10 ar  
     7    4   13 1   
     8    5    6 1   
     9    5   10 1   
    10    5   14 1   
    11    5   15 1   
    12    6    7 1   
    13    6   16 1   
    14    6   17 1   
    15    7    8 1   
    16    7    9 1   
    17    7   18 1   
    18    8   11 1   
    19    8   19 1   
    20    8   20 1   
    21    9   21 1   
    22    9   22 1   
    23    9   23 1   
    24   10   11 ar  
    25   12   24 1   
    26   12   25 1   
    27   13   26 1   
    28   13   27 1   
@<TRIPOS>SUBSTRUCTURE
     1 7ME         1 TEMP              0 ****  ****    0 ROOT
