@<TRIPOS>MOLECULE
7ME
   27    25     1     0     0
SMALL
bcc


@<TRIPOS>ATOM
      1 N1          0.8280    0.1640   -2.0640 n1        1 7ME     -0.600800
      2 C2          2.2240    0.1640   -2.0640 c1        1 7ME      0.557600
      3 N3          2.9400    0.1640   -0.8330 n1        1 7ME     -0.600800
      4 C4          2.2600    0.1640    0.3620 c1        1 7ME      0.557600
      5 C5          0.0440    0.1640    1.7440 c3        1 7ME     -0.041300
      6 C6         -1.3300   -0.6030    1.5130 c3        1 7ME     -0.072400
      7 C7         -2.0290    0.1640    0.4730 c3        1 7ME     -0.066700
      8 C8         -1.4340    0.1640   -0.8470 c3        1 7ME     -0.065300
      9 C13        -3.5400   -0.4370    0.3400 c3        1 7ME     -0.091100
     10 C4A         0.9030    0.1640    0.3700 c1        1 7ME     -0.243100
     11 C8A         0.1610    0.1640   -0.9100 c1        1 7ME      0.114900
     12 NA2         2.9370    0.1590   -3.3010 n3        1 7ME     -0.792900
     13 NA4         2.9800    0.2130    1.5920 n3        1 7ME     -0.792900
     14 H5         -0.1390    1.0840    2.0130 hc        1 7ME      0.040200
     15 H5A         0.5530   -0.2850    2.4450 hc        1 7ME      0.040200
     16 H6         -1.1620   -1.5150    1.2060 hc        1 7ME      0.044200
     17 H6A        -1.8550   -0.6140    2.3360 hc        1 7ME      0.044200
     18 H7         -2.0950    1.0900    0.7750 hc        1 7ME      0.053700
     19 H8         -1.7540    0.9540   -1.3220 hc        1 7ME      0.068200
     20 H8A        -1.7540   -0.6260   -1.3220 hc        1 7ME      0.068200
     21 H13        -3.4940   -1.3830    0.1030 hc        1 7ME      0.036033
     22 H13A       -4.0070   -0.3370    1.1910 hc        1 7ME      0.036033
     23 H13B       -4.0240    0.0490   -0.3550 hc        1 7ME      0.036033
     24 HNA2        3.1350   -0.6320   -3.7090 hn        1 7ME      0.417800
     25 HNAA        3.1940    0.9460   -3.6830 hn        1 7ME      0.417800
     26 HNA4        3.1560    1.0170    1.9860 hn        1 7ME      0.417800
     27 HNAB        3.3020   -0.5560    1.9620 hn        1 7ME      0.417800
@<TRIPOS>BOND
     1    1    2 3   
     2    2   12 1   
     3    3    4 3   
     4    4   13 1   
     5    5    6 1   
     6    5   10 1   
     7    5   14 1   
     8    5   15 1   
     9    6    7 1   
    10    6   16 1   
    11    6   17 1   
    12    7    8 1   
    13    7    9 1   
    14    7   18 1   
    15    8   11 1   
    16    8   19 1   
    17    8   20 1   
    18    9   21 1   
    19    9   22 1   
    20    9   23 1   
    21   10   11 3   
    22   12   24 1   
    23   12   25 1   
    24   13   26 1   
    25   13   27 1   
@<TRIPOS>SUBSTRUCTURE
     1 7ME         1 TEMP              0 ****  ****    0 ROOT
