@<TRIPOS>MOLECULE
7ME
   27    28     1     0     0
SMALL
bcc


@<TRIPOS>ATOM
      1 N1         -0.0450   -0.0330   -0.0660 nb        1 7ME     -0.783000
      2 C2          1.3400   -0.0260   -0.0270 ca        1 7ME      0.890900
      3 N3          2.1070   -0.0510    1.1230 nb        1 7ME     -0.815000
      4 C4          1.4290   -0.0720    2.3090 ca        1 7ME      0.695200
      5 C5         -0.7110   -0.0800    3.6660 c3        1 7ME     -0.007100
      6 C6         -2.2050   -0.3050    3.5540 c3        1 7ME     -0.072400
      7 C7         -2.7920    0.4670    2.3860 c3        1 7ME     -0.066700
      8 C8         -2.1900   -0.0400    1.0860 c3        1 7ME     -0.132700
      9 C13        -4.2990    0.3340    2.3530 c3        1 7ME     -0.091100
     10 C4A        -0.0070   -0.0670    2.3620 ca        1 7ME     -0.405900
     11 C8A        -0.6850   -0.0390    1.1250 ca        1 7ME      0.509600
     12 NA2         2.0220    0.0910   -1.2490 nv        1 7ME     -0.922500
     13 NA4         2.1740   -0.1690    3.4870 nv        1 7ME     -0.934500
     14 H5         -0.2870   -0.8890    4.3230 hc        1 7ME      0.040700
     15 H5A        -0.5260    0.9020    4.1850 hc        1 7ME      0.040700
     16 H6         -2.4140   -1.3980    3.4170 hc        1 7ME      0.044200
     17 H6A        -2.7000    0.0150    4.5080 hc        1 7ME      0.044200
     18 H7         -2.5280    1.5560    2.5050 hc        1 7ME      0.055700
     19 H8         -2.5310   -1.0950    0.8960 hc        1 7ME      0.067700
     20 H8A        -2.5610    0.5910    0.2340 hc        1 7ME      0.067700
     21 H13        -4.7430    0.7440    3.2920 hc        1 7ME      0.035700
     22 H13A       -4.5980   -0.7380    2.2590 hc        1 7ME      0.035700
     23 H13B       -4.7190    0.8960    1.4850 hc        1 7ME      0.035700
     24 HNA2        1.5040   -0.1630   -2.0590 hn        1 7ME      0.420300
     25 HNAA        2.9760   -0.1860   -1.2440 hn        1 7ME      0.420300
     26 HNA4        1.7400    0.2280    4.2880 hn        1 7ME      0.412800
     27 HNAB        3.1530   -0.0050    3.4140 hn        1 7ME      0.412800
@<TRIPOS>BOND
     1    1    2 ar  
     2    1   11 ar  
     3    2    3 ar  
     4    2   12 1   
     5    3    4 ar  
     6    4   10 ar  
     7    4   13 1   
     8    5    6 1   
     9    5   10 1   
    10    5   14 1   
    11    5   15 1   
    12    6    7 1   
    13    6   16 1   
    14    6   17 1   
    15    7    8 1   
    16    7    9 1   
    17    7   18 1   
    18    8   11 1   
    19    8   19 1   
    20    8   20 1   
    21    9   21 1   
    22    9   22 1   
    23    9   23 1   
    24   10   11 ar  
    25   12   24 1   
    26   12   25 1   
    27   13   26 1   
    28   13   27 1   
@<TRIPOS>SUBSTRUCTURE
     1 7ME         1 TEMP              0 ****  ****    0 ROOT
