@<TRIPOS>MOLECULE
7ME
   29    30     1     0     0
SMALL
bcc


@<TRIPOS>ATOM
      1 N1         -0.0260    0.0060   -0.0570 nb        1 7ME     -0.641000
      2 C2          1.3500    0.0300    0.0050 ca        1 7ME      0.748900
      3 N3          2.1190    0.0460    1.1250 nb        1 7ME     -0.669000
      4 C4          1.4180    0.0300    2.3050 ca        1 7ME      0.483200
      5 C5         -0.7120   -0.0070    3.6750 c3        1 7ME     -0.072100
      6 C6         -2.1860   -0.3420    3.5500 c3        1 7ME     -0.088400
      7 C7         -2.8210    0.3970    2.3870 c3        1 7ME     -0.067700
      8 C8         -2.1920   -0.0550    1.0790 c3        1 7ME     -0.163700
      9 C13        -4.3150    0.1480    2.3470 c3        1 7ME     -0.102100
     10 C4A         0.0090   -0.0060    2.3800 ca        1 7ME     -0.178900
     11 C8A        -0.6920   -0.0110    1.1150 ca        1 7ME      0.547600
     12 NA2         2.0590    0.0430   -1.3090 n4        1 7ME     -0.816300
     13 NA4         2.2250    0.0520    3.5420 n4        1 7ME     -0.822300
     14 H5         -0.2440   -0.7470    4.3820 hc        1 7ME      0.085200
     15 H5A        -0.6110    1.0200    4.1330 hc        1 7ME      0.085200
     16 H6         -2.7030   -0.0570    4.5060 hc        1 7ME      0.090200
     17 H6A        -2.3200   -1.4480    3.4180 hc        1 7ME      0.090200
     18 H7         -2.6470    1.5040    2.5140 hc        1 7ME      0.069700
     19 H8         -2.5850    0.5800    0.2340 hc        1 7ME      0.121700
     20 H8A        -2.4980   -1.1190    0.8550 hc        1 7ME      0.121700
     21 H13        -4.7740    0.6770    1.4770 hc        1 7ME      0.065700
     22 H13A       -4.7910    0.5300    3.2830 hc        1 7ME      0.065700
     23 H13B       -4.5350   -0.9440    2.2580 hc        1 7ME      0.065700
     24 HNA2        1.7670    0.8800   -1.8400 hn        1 7ME      0.500467
     25 HNAA        1.7970   -0.8020   -1.8410 hn        1 7ME      0.500467
     26 HNA4        2.1930   -0.8810    3.9810 hn        1 7ME      0.493133
     27 HNAB        1.8220    0.7470    4.1890 hn        1 7ME      0.493133
     28 HA23        3.0820    0.0620   -1.1740 hn        1 7ME      0.500467
     29 HA43        3.2100    0.2990    3.3510 hn        1 7ME      0.493133
@<TRIPOS>BOND
     1    1    2 ar  
     2    1   11 ar  
     3    2    3 ar  
     4    2   12 1   
     5    3    4 ar  
     6    4   10 ar  
     7    4   13 1   
     8    5    6 1   
     9    5   10 1   
    10    5   14 1   
    11    5   15 1   
    12    6    7 1   
    13    6   16 1   
    14    6   17 1   
    15    7    8 1   
    16    7    9 1   
    17    7   18 1   
    18    8   11 1   
    19    8   19 1   
    20    8   20 1   
    21    9   21 1   
    22    9   22 1   
    23    9   23 1   
    24   10   11 ar  
    25   12   24 1   
    26   12   25 1   
    27   12   28 1   
    28   13   26 1   
    29   13   27 1   
    30   13   29 1   
@<TRIPOS>SUBSTRUCTURE
     1 7ME         1 TEMP              0 ****  ****    0 ROOT
