@<TRIPOS>MOLECULE
7MG
   41    41     1     0     0
SMALL
bcc


@<TRIPOS>ATOM
      1 P          -0.8140    5.2700    0.4080 p3        1 7MG      2.538000
      2 OP1         0.6350    5.3580    0.8370 o         1 7MG     -1.167000
      3 OP2        -1.7050    5.6590    1.5680 os        1 7MG     -0.819000
      4 OP3        -1.0540    6.2050   -0.7470 o         1 7MG     -1.167000
      5 O5'        -1.1420    3.7980   -0.0310 os        1 7MG     -0.750000
      6 C5'        -1.0890    2.7930    0.9370 c3        1 7MG      0.028000
      7 C4'        -1.7970    1.5770    0.4380 c3        1 7MG     -0.076000
      8 O4'        -1.0400    0.9280   -0.3980 os        1 7MG     -0.266000
      9 C3'        -2.0990    0.5440    1.6880 c3        1 7MG      0.164000
     10 O3'        -3.3490    0.9460    2.3950 oh        1 7MG     -0.701000
     11 C2'        -2.2390   -0.5700    1.1840 c3        1 7MG     -0.096000
     12 O2'        -3.6940   -0.8240    0.8710 oh        1 7MG     -0.375000
     13 C1'        -1.3770   -0.5200   -0.1790 c3        1 7MG      0.121000
     14 N9         -0.2690   -1.2390   -0.0580 n3        1 7MG     -0.215000
     15 C8          0.4970   -1.5320    1.2600 c3        1 7MG      0.001000
     16 N7          1.9530   -1.9020    0.7980 n3        1 7MG     -0.143000
     17 C5          1.9010   -1.7940   -0.5630 c2        1 7MG     -0.298000
     18 C6          3.0660   -1.9710   -1.5230 c2        1 7MG      0.374000
     19 O6          4.1570   -2.3330   -1.1030 o         1 7MG     -0.415000
     20 N1          2.8660   -1.8140   -2.8900 n         1 7MG     -0.326000
     21 C2          1.5630   -1.4640   -3.3860 c2        1 7MG      0.166000
     22 N2          1.3650   -1.2150   -4.8050 n3        1 7MG     -0.309000
     23 N3          0.4570   -1.3530   -2.4780 n1        1 7MG     -0.210000
     24 C4          0.6820   -1.4340   -1.0400 c1        1 7MG      0.163000
     25 CM7         2.9180   -2.6710    1.5530 c3        1 7MG     -0.145000
     26 H5'        -1.5220    3.1080    1.7580 h1        1 7MG      0.062000
     27 H5''       -0.1530    2.5710    1.1260 h1        1 7MG      0.062000
     28 H4'        -2.6360    1.8330    0.0030 h1        1 7MG      0.113000
     29 H3'        -1.3410    0.5400    2.3140 h1        1 7MG     -0.024000
     30 HO3'       -3.2410    0.8490    3.2580 ho        1 7MG      0.228000
     31 H2'        -1.8910   -1.2640    1.7840 h1        1 7MG      0.058000
     32 HO2'       -3.9320   -1.6350    1.1830 ho        1 7MG      0.238000
     33 H1'        -1.9040   -0.8500   -0.9130 h2        1 7MG      0.116000
     34 H81         0.5110   -0.7520    1.8190 h2        1 7MG      0.123500
     35 H82         0.0910   -2.2780    1.7290 h2        1 7MG      0.123500
     36 HN1         3.5750   -1.8270   -3.4540 hn        1 7MG      0.234000
     37 HN21        2.0660   -1.3250   -5.3940 hn        1 7MG      0.179000
     38 HN22        0.5610   -0.8820   -5.1060 hn        1 7MG      0.179000
     39 HM71        3.7930   -2.1990    1.5460 h1        1 7MG      0.076667
     40 HM72        2.6100   -2.7690    2.4660 h1        1 7MG      0.076667
     41 HM73        3.0220   -3.5660    1.1430 h1        1 7MG      0.076667
@<TRIPOS>BOND
     1    1    2 1   
     2    1    4 1   
     3    1    5 1   
     4    5    6 1   
     5    6    7 1   
     6    6   26 1   
     7    6   27 1   
     8    7    8 1   
     9    7    9 1   
    10    7   28 1   
    11    8   13 1   
    12    9   10 1   
    13    9   11 1   
    14    9   29 1   
    15   10   30 1   
    16   11   12 1   
    17   11   13 1   
    18   11   31 1   
    19   12   32 1   
    20   13   14 1   
    21   13   33 1   
    22   14   15 1   
    23   14   24 1   
    24   15   16 1   
    25   15   34 1   
    26   15   35 1   
    27   16   17 1   
    28   16   25 1   
    29   17   18 1   
    30   17   24 1   
    31   18   19 1   
    32   18   20 1   
    33   20   21 1   
    34   20   36 1   
    35   21   22 1   
    36   21   23 1   
    37   22   37 1   
    38   22   38 1   
    39   25   39 1   
    40   25   40 1   
    41   25   41 1   
@<TRIPOS>SUBSTRUCTURE
     1 7MG         1 TEMP              0 ****  ****    0 ROOT
