@<TRIPOS>MOLECULE
7MG
   41    43     1     0     0
SMALL
bcc


@<TRIPOS>ATOM
      1 P           1.6000    0.3130   -2.2380 p5        1 7MG      1.356900
      2 OP1         2.1480    0.8370   -0.9230 o         1 7MG     -0.939167
      3 OP2         2.6030   -0.1450   -3.2450 o         1 7MG     -0.939167
      4 OP3         0.4340    1.1540   -2.7060 o         1 7MG     -0.939167
      5 O5'         0.7720   -1.1280   -1.8000 os        1 7MG     -0.566200
      6 C5'         0.1670   -1.1540   -0.5700 c3        1 7MG      0.214400
      7 C4'        -1.3570   -0.9200   -0.6710 c3        1 7MG      0.067100
      8 O4'        -1.9800   -1.2430    0.5900 os        1 7MG     -0.468600
      9 C3'        -1.7100    0.5400   -1.0140 c3        1 7MG      0.094100
     10 O3'        -2.3180    0.6270   -2.2860 oh        1 7MG     -0.666800
     11 C2'        -2.7050    0.9950    0.0710 c3        1 7MG      0.126100
     12 O2'        -4.0590    1.0080   -0.3470 oh        1 7MG     -0.627800
     13 C1'        -2.5580   -0.0760    1.1960 c3        1 7MG      0.343300
     14 N9         -1.8430    0.3610    2.4000 nh        1 7MG     -0.603400
     15 C8         -1.6630   -0.7290    3.4090 c3        1 7MG      0.371000
     16 N7         -0.2130   -0.9320    3.7380 nh        1 7MG     -0.539400
     17 C5          0.4290    0.0870    2.9540 cc        1 7MG     -0.246200
     18 C6          1.8470    0.2820    2.7450 c         1 7MG      0.740700
     19 O6          2.7720   -0.3370    3.3180 o         1 7MG     -0.694500
     20 N1          2.1860    1.2910    1.8080 n         1 7MG     -0.449400
     21 C2          1.1850    2.0610    1.1750 cc        1 7MG      0.754800
     22 N2          1.6090    3.1320    0.3440 nh        1 7MG     -0.849800
     23 N3         -0.1530    1.9290    1.4310 nd        1 7MG     -0.713300
     24 C4         -0.4970    0.8540    2.2070 cd        1 7MG      0.360600
     25 CM7         0.2540   -2.2700    3.4280 c3        1 7MG      0.122100
     26 H5'         0.6160   -0.3870    0.1210 h1        1 7MG      0.000200
     27 H5''        0.3090   -2.1760   -0.1090 h1        1 7MG      0.000200
     28 H4'        -1.8050   -1.6250   -1.4200 h1        1 7MG      0.056700
     29 H3'        -0.7600    1.1620   -1.0190 h1        1 7MG      0.148700
     30 HO3'       -1.5810    0.8310   -2.9010 ho        1 7MG      0.487000
     31 H2'        -2.5020    2.0360    0.4300 h1        1 7MG      0.097700
     32 HO2'       -4.1260    0.4520   -1.1340 ho        1 7MG      0.417000
     33 H1'        -3.5800   -0.4040    1.5530 h2        1 7MG      0.059700
     34 H81        -2.1550   -1.6830    3.0720 h2        1 7MG      0.046200
     35 H82        -2.1510   -0.3610    4.3560 h2        1 7MG      0.046200
     36 HN1         3.0100    1.1190    1.2520 hn        1 7MG      0.368500
     37 HN21        0.8690    3.4180   -0.2730 hn        1 7MG      0.422800
     38 HN22        2.4070    2.8450   -0.2100 hn        1 7MG      0.422800
     39 HM71        1.3630   -2.3000    3.5960 h1        1 7MG      0.038700
     40 HM72       -0.2500   -2.9850    4.1290 h1        1 7MG      0.038700
     41 HM73        0.0420   -2.5890    2.3710 h1        1 7MG      0.038700
@<TRIPOS>BOND
     1    1    2 1   
     2    1    3 1   
     3    1    4 1   
     4    1    5 1   
     5    5    6 1   
     6    6    7 1   
     7    6   26 1   
     8    6   27 1   
     9    7    8 1   
    10    7    9 1   
    11    7   28 1   
    12    8   13 1   
    13    9   10 1   
    14    9   11 1   
    15    9   29 1   
    16   10   30 1   
    17   11   12 1   
    18   11   13 1   
    19   11   31 1   
    20   12   32 1   
    21   13   14 1   
    22   13   33 1   
    23   14   15 1   
    24   14   24 1   
    25   15   16 1   
    26   15   34 1   
    27   15   35 1   
    28   16   17 1   
    29   16   25 1   
    30   17   18 1   
    31   17   24 2   
    32   18   19 2   
    33   18   20 1   
    34   20   21 1   
    35   20   36 1   
    36   21   22 1   
    37   21   23 2   
    38   22   37 1   
    39   22   38 1   
    40   23   24 1   
    41   25   39 1   
    42   25   40 1   
    43   25   41 1   
@<TRIPOS>SUBSTRUCTURE
     1 7MG         1 TEMP              0 ****  ****    0 ROOT
