@<TRIPOS>MOLECULE
7MH
   19    19     1     0     0
SMALL
bcc


@<TRIPOS>ATOM
      1 C7         -0.0320   -0.0090    0.0180 c3        1 7MH     -0.063900
      2 C5          1.4590    0.0250    0.0240 cc        1 7MH      0.078400
      3 C4          2.1760   -0.0240    1.2050 cd        1 7MH     -0.224000
      4 C3          3.5980    0.0100    1.1870 cd        1 7MH      0.010800
      5 C6          4.3320   -0.0440    2.4710 c3        1 7MH     -0.068900
      6 C2          4.2510    0.0920   -0.0180 cc        1 7MH     -0.213200
      7 C1          3.5480    0.1450   -1.2730 c         1 7MH      0.380600
      8 S1          4.2950    0.2400   -2.6870 s         1 7MH     -0.547400
      9 N1          2.1440    0.1070   -1.1870 n         1 7MH     -0.125500
     10 O1          1.3770    0.1500   -2.2720 oh        1 7MH     -0.402100
     11 H1         -0.3970   -0.8930   -0.5650 hc        1 7MH      0.067367
     12 H2         -0.4170   -0.0760    1.0630 hc        1 7MH      0.067367
     13 H3         -0.4390    0.9150   -0.4650 hc        1 7MH      0.067367
     14 H4          1.6440   -0.0890    2.1630 ha        1 7MH      0.157000
     15 H5          4.0850   -0.9910    3.0140 hc        1 7MH      0.056033
     16 H6          5.4380   -0.0050    2.3100 hc        1 7MH      0.056033
     17 H7          4.0360    0.8190    3.1190 hc        1 7MH      0.056033
     18 H8          5.3500    0.1210   -0.0820 ha        1 7MH      0.175000
     19 H9          1.9850    0.2070   -3.0580 ho        1 7MH      0.472000
@<TRIPOS>BOND
     1    1    2 1   
     2    1   11 1   
     3    1   12 1   
     4    1   13 1   
     5    2    3 2   
     6    2    9 1   
     7    3    4 1   
     8    3   14 1   
     9    4    5 1   
    10    4    6 2   
    11    5   15 1   
    12    5   16 1   
    13    5   17 1   
    14    6    7 1   
    15    6   18 1   
    16    7    8 2   
    17    7    9 1   
    18    9   10 1   
    19   10   19 1   
@<TRIPOS>SUBSTRUCTURE
     1 7MH         1 TEMP              0 ****  ****    0 ROOT
