@<TRIPOS>MOLECULE
7MH
   19    19     1     0     0
SMALL
bcc


@<TRIPOS>ATOM
      1 C7         -0.0350    0.0170    0.0260 c3        1 7MH     -0.063900
      2 C5          1.4560    0.0390    0.0280 cc        1 7MH      0.078400
      3 C4          2.1770   -0.0120    1.2070 cd        1 7MH     -0.224000
      4 C3          3.5990    0.0110    1.1850 cd        1 7MH      0.010800
      5 C6          4.3360   -0.0440    2.4670 c3        1 7MH     -0.068900
      6 C2          4.2480    0.0850   -0.0220 cc        1 7MH     -0.213200
      7 C1          3.5430    0.1400   -1.2750 c         1 7MH      0.380600
      8 S1          4.2870    0.2260   -2.6920 s         1 7MH     -0.547400
      9 N1          2.1390    0.1140   -1.1850 n         1 7MH     -0.125500
     10 O1          1.3690    0.1590   -2.2680 oh        1 7MH     -0.402100
     11 H1         -0.4360    0.9430   -0.4580 hc        1 7MH      0.067367
     12 H2         -0.4180   -0.0450    1.0730 hc        1 7MH      0.067367
     13 H3         -0.4080   -0.8660   -0.5530 hc        1 7MH      0.067367
     14 H4          1.6470   -0.0700    2.1670 ha        1 7MH      0.157000
     15 H5          4.0770   -0.9840    3.0170 hc        1 7MH      0.056033
     16 H6          5.4410   -0.0220    2.3030 hc        1 7MH      0.056033
     17 H7          4.0540    0.8270    3.1100 hc        1 7MH      0.056033
     18 H8          5.3480    0.1050   -0.0890 ha        1 7MH      0.175000
     19 H9          1.9750    0.2090   -3.0550 ho        1 7MH      0.472000
@<TRIPOS>BOND
     1    1    2 1   
     2    1   11 1   
     3    1   12 1   
     4    1   13 1   
     5    2    3 2   
     6    2    9 1   
     7    3    4 1   
     8    3   14 1   
     9    4    5 1   
    10    4    6 2   
    11    5   15 1   
    12    5   16 1   
    13    5   17 1   
    14    6    7 1   
    15    6   18 1   
    16    7    8 2   
    17    7    9 1   
    18    9   10 1   
    19   10   19 1   
@<TRIPOS>SUBSTRUCTURE
     1 7MH         1 TEMP              0 ****  ****    0 ROOT
