@<TRIPOS>MOLECULE
7MN
   50    52     1     0     0
SMALL
bcc


@<TRIPOS>ATOM
      1 C           3.4550   -2.6490   -0.6280 c         1 7MN      0.834300
      2 N           1.1090   -1.9840   -0.2250 nh        1 7MN      0.020700
      3 O           4.5920   -2.2620   -1.0120 o         1 7MN     -0.825800
      4 P          -4.1270    2.3890    0.2950 p5        1 7MN      1.435800
      5 N1         -3.9490   -2.5710    0.6530 nh        1 7MN     -0.148600
      6 C2         -2.9830   -3.5360    0.4030 c2        1 7MN     -0.116300
      7 C3         -1.6910   -3.1080    0.1170 ce        1 7MN     -0.001900
      8 O3         -0.7430   -4.0960   -0.1090 oh        1 7MN     -0.525100
      9 C4         -1.3390   -1.7090    0.0960 ce        1 7MN      0.072000
     10 C5         -2.3790   -0.7970    0.3610 ce        1 7MN     -0.266300
     11 C6         -3.6990   -1.2500    0.6230 c1        1 7MN     -0.091900
     12 CA          2.3150   -1.6180   -0.6340 ce        1 7MN     -0.019700
     13 CB          2.6440   -0.2410   -1.1410 c3        1 7MN      0.165500
     14 CG          2.4780    3.0820    0.5370 c3        1 7MN     -0.039100
     15 O1P        -3.6470    2.5370   -1.0980 o         1 7MN     -0.848500
     16 O2P        -4.4340    3.5380    1.1730 o         1 7MN     -0.848500
     17 O3P        -5.3700    1.3420    0.3310 oh        1 7MN     -0.806400
     18 C4A        -0.0330   -1.2450   -0.2340 c2        1 7MN     -0.435100
     19 C5A        -2.1280    0.6840    0.3610 c3        1 7MN      0.249600
     20 CD1         1.7620    1.7970    0.0360 c3        1 7MN      0.177800
     21 CD2         3.9170    2.6840    0.5810 ca        1 7MN     -0.157300
     22 NE1         2.7770    0.7410   -0.0850 nh        1 7MN     -0.631000
     23 CE2         4.0360    1.3170    0.1660 ca        1 7MN      0.153600
     24 CE3         5.0350    3.4050    0.9470 ca        1 7MN     -0.103000
     25 CH2         6.4080    1.4580    0.4900 ca        1 7MN     -0.111000
     26 OXT         3.1760   -3.8260   -0.2660 o         1 7MN     -0.825800
     27 CZ2         5.2940    0.7030    0.1170 ca        1 7MN     -0.165000
     28 CZ3         6.2900    2.7850    0.8980 ca        1 7MN     -0.201000
     29 H6         -5.1010    0.4410    0.5150 ho        1 7MN      0.460000
     30 HB          3.6260   -0.3400   -1.6980 h1        1 7MN      0.062700
     31 HBA         1.8530    0.0930   -1.8760 h1        1 7MN      0.062700
     32 HG          2.3040    3.9360   -0.1610 hc        1 7MN      0.051200
     33 H2A        -3.5340   -5.2940    1.5090 hc        1 7MN      0.040033
     34 H2AA       -4.2530   -5.1940   -0.1540 hc        1 7MN      0.040033
     35 H4A         0.0830   -0.1820   -0.4970 h4        1 7MN      0.160000
     36 H5A        -1.1150    0.8680    0.8330 h1        1 7MN      0.034700
     37 H5AA       -2.1100    1.0480   -0.7090 h1        1 7MN      0.034700
     38 HD1         0.9950    1.4540    0.7830 h1        1 7MN      0.060700
     39 HE3         4.9450    4.4510    1.2690 ha        1 7MN      0.111000
     40 HH2         7.4010    0.9850    0.4610 ha        1 7MN      0.112000
     41 HZ2         5.3870   -0.3550   -0.1990 ha        1 7MN      0.201000
     42 HZ3         7.1850    3.3520    1.1870 ha        1 7MN      0.103000
     43 H           1.0500   -2.9460    0.1020 hn        1 7MN      0.313700
     44 H19        -4.8720   -2.8770    0.8610 hn        1 7MN      0.276700
     45 H20        -0.5210   -4.0420   -1.0520 ho        1 7MN      0.409000
     46 H21         2.0990    3.3690    1.5480 hc        1 7MN      0.051200
     47 H22        -2.4930   -5.5960    0.0560 hc        1 7MN      0.040033
     48 H23         1.2430    1.9920   -0.9410 h1        1 7MN      0.060700
     49 C2A        -3.3380   -4.9820    0.4530 c3        1 7MN     -0.050900
     50 O4P        -3.0490    1.4170    1.0990 os        1 7MN     -0.578200
@<TRIPOS>BOND
     1    1    3 1   
     2    1   12 1   
     3    1   26 1   
     4    2   12 2   
     5    2   18 1   
     6    2   43 1   
     7    4   15 1   
     8    4   16 1   
     9    4   17 1   
    10    4   50 1   
    11    5    6 1   
    12    5   11 2   
    13    5   44 1   
    14    6    7 2   
    15    6   49 1   
    16    7    8 1   
    17    7    9 1   
    18    8   45 1   
    19    9   10 1   
    20    9   18 2   
    21   10   11 2   
    22   10   19 1   
    23   12   13 1   
    24   13   22 1   
    25   13   30 1   
    26   13   31 1   
    27   14   20 1   
    28   14   21 1   
    29   14   32 1   
    30   14   46 1   
    31   17   29 1   
    32   18   35 1   
    33   19   36 1   
    34   19   37 1   
    35   19   50 1   
    36   20   22 1   
    37   20   38 1   
    38   20   48 1   
    39   21   23 ar  
    40   21   24 ar  
    41   22   23 1   
    42   23   27 ar  
    43   24   28 ar  
    44   24   39 1   
    45   25   27 ar  
    46   25   28 ar  
    47   25   40 1   
    48   27   41 1   
    49   28   42 1   
    50   33   49 1   
    51   34   49 1   
    52   47   49 1   
@<TRIPOS>SUBSTRUCTURE
     1 7MN         1 TEMP              0 ****  ****    0 ROOT
