@<TRIPOS>MOLECULE
7MN
   50    46     1     0     0
SMALL
bcc


@<TRIPOS>ATOM
      1 C           0.8520   -0.8740   -1.3240 c1        1 7MN      0.387000
      2 N           0.1360    0.2200    0.7810 n2        1 7MN      0.115000
      3 O           2.0500   -1.2670   -1.3230 o         1 7MN     -0.560500
      4 P           4.6270    4.8330   -1.6450 p3        1 7MN      2.542000
      5 N1         -0.3270    5.4040    1.3270 n3        1 7MN     -0.115000
      6 C2         -1.2240    4.2750    1.5960 c2        1 7MN     -0.112000
      7 C3         -0.7890    2.8600    1.2540 c1        1 7MN     -0.022000
      8 O3         -1.6900    1.7930    1.4050 oh        1 7MN     -0.298000
      9 C4          0.5340    2.6270    0.6460 c1        1 7MN      0.024000
     10 C5          1.3860    3.7770    0.2800 c2        1 7MN     -0.141000
     11 C6          0.9350    5.1860    0.6110 c2        1 7MN     -0.157000
     12 CA          0.0610   -0.8460   -0.0280 c1        1 7MN     -0.284000
     13 CB         -0.8360   -2.0550    0.3610 c3        1 7MN     -0.007000
     14 CG         -0.3880   -5.3350    1.0710 c3        1 7MN     -0.119000
     15 O1P         5.6800    4.6150   -0.5810 os        1 7MN     -0.835000
     16 C2A        -2.5530    4.5120    2.2970 c3        1 7MN     -0.165000
     17 O2P         4.8430    6.1800   -2.2990 o         1 7MN     -1.166500
     18 O3P         4.7310    3.7450   -2.6860 o         1 7MN     -1.166500
     19 C4A         0.9730    1.3480    0.4210 c1        1 7MN     -0.363000
     20 O4P         3.1790    4.7930   -0.9760 os        1 7MN     -0.741000
     21 C5A         2.6960    3.5510   -0.4810 c3        1 7MN      0.084000
     22 CD1         0.2220   -4.0090    1.1330 c3        1 7MN     -0.054000
     23 CD2        -1.1980   -5.4100   -0.1780 c2        1 7MN     -0.159000
     24 NE1        -0.1830   -3.2900   -0.0330 n3        1 7MN     -0.239000
     25 CE2        -1.1540   -4.1500   -0.7970 c2        1 7MN      0.064000
     26 CE3        -1.8630   -6.4720   -0.8010 c1        1 7MN     -0.106000
     27 CH2        -2.4370   -5.0170   -2.6510 c1        1 7MN     -0.106000
     28 OXT         0.2970   -0.5430   -2.4100 o         1 7MN     -0.560500
     29 CZ2        -1.7750   -3.9590   -2.0330 c2        1 7MN     -0.139000
     30 CZ3        -2.4800   -6.2790   -2.0320 c1        1 7MN     -0.192000
     31 H6          1.4930    5.9490    0.3610 h4        1 7MN      0.252000
     32 HB         -0.9780   -2.0570    1.3270 h1        1 7MN      0.096000
     33 HBA        -1.7000   -1.9820   -0.0960 h1        1 7MN      0.096000
     34 HG          0.3120   -6.0220    1.0550 hc        1 7MN      0.078500
     35 H2A        -3.2840    4.4220    1.6500 hc        1 7MN      0.077000
     36 H2AA       -2.5640    5.4170    2.6800 hc        1 7MN      0.077000
     37 H4A         1.8480    1.1960    0.0190 ha        1 7MN      0.223000
     38 H5A         3.3610    3.1590    0.1220 h1        1 7MN      0.092000
     39 H5AA        2.5370    2.9410   -1.2310 h1        1 7MN      0.092000
     40 HD1         1.2000   -4.1030    1.1310 h1        1 7MN      0.072500
     41 HE3        -1.9260   -7.3360   -0.3550 ha        1 7MN      0.107000
     42 HH2        -2.8980   -4.9530   -3.5110 DU        1 7MN      0.123000
     43 HZ2        -1.7830   -3.0770   -2.4410 ha        1 7MN      0.217000
     44 HZ3        -2.8470   -7.0570   -2.5020 ha        1 7MN      0.106000
     45 H          -0.3430    0.2360    1.5660 hn        1 7MN      0.201000
     46 H19        -0.5640    6.2500    1.5890 hn        1 7MN      0.230000
     47 H20        -2.4300    1.9620    0.9420 ho        1 7MN      0.225000
     48 H21        -0.9670   -5.4700    1.8490 hc        1 7MN      0.078500
     49 H22        -2.6670    3.8530    3.0130 hc        1 7MN      0.077000
     50 H23        -0.1040   -3.5430    1.9280 h1        1 7MN      0.072500
@<TRIPOS>BOND
     1    1    3 1   
     2    1   28 1   
     3    2   12 1   
     4    2   45 1   
     5    4   17 1   
     6    4   18 1   
     7    4   20 1   
     8    5    6 1   
     9    5   11 1   
    10    5   46 1   
    11    6    7 1   
    12    6   16 1   
    13    7    8 1   
    14    8   47 1   
    15    9   10 1   
    16    9   19 1   
    17   10   11 1   
    18   10   21 1   
    19   11   31 1   
    20   12   13 1   
    21   13   24 1   
    22   13   32 1   
    23   13   33 1   
    24   14   22 1   
    25   14   23 1   
    26   14   34 1   
    27   14   48 1   
    28   16   35 1   
    29   16   36 1   
    30   16   49 1   
    31   19   37 1   
    32   20   21 1   
    33   21   38 1   
    34   21   39 1   
    35   22   24 1   
    36   22   40 1   
    37   22   50 1   
    38   23   25 1   
    39   23   26 1   
    40   24   25 1   
    41   25   29 1   
    42   26   41 1   
    43   27   29 1   
    44   27   30 1   
    45   29   43 1   
    46   30   44 1   
@<TRIPOS>SUBSTRUCTURE
     1 7MN         1 TEMP              0 ****  ****    0 ROOT
