@<TRIPOS>MOLECULE
7MP
   51    54     1     0     0
SMALL
bcc


@<TRIPOS>ATOM
      1 OAK         3.7930    2.1330    1.7300 o         1 7MP     -0.522500
      2 CAH         3.8420    1.1080    1.0390 c         1 7MP      0.796500
      3 NAG         4.8240    0.1080    1.2810 n         1 7MP     -0.328400
      4 CAT         5.7600    0.3130    2.3730 c3        1 7MP      0.066300
      5 C4          4.8680   -1.0570    0.5200 ca        1 7MP      0.596300
      6 N3          5.8030   -2.0050    0.7770 nb        1 7MP     -0.811000
      7 C2          5.7840   -3.1460   -0.0280 ca        1 7MP      0.981900
      8 NAS         6.7100   -4.1070    0.2100 nh        1 7MP     -0.869500
      9 N1          4.8550   -3.3730   -1.0900 nb        1 7MP     -0.725000
     10 C6          3.9670   -2.4360   -1.3070 ca        1 7MP      0.572200
     11 C5          3.8860   -1.2160   -0.5450 ca        1 7MP     -0.493600
     12 CAJ         2.9320   -0.2260   -0.7770 cc        1 7MP      0.201600
     13 NAI         2.9060    0.9070   -0.0440 n         1 7MP     -0.204200
     14 CAL         1.8600    1.8740   -0.2620 ca        1 7MP     -0.019400
     15 CAQ         2.1480    3.1590   -0.7610 ca        1 7MP     -0.047300
     16 CAR         3.5250    3.6070   -1.0680 c3        1 7MP     -0.070800
     17 CAP         1.0690    4.0320   -0.9620 ca        1 7MP     -0.092000
     18 CAO        -0.2380    3.6540   -0.7080 ca        1 7MP     -0.137000
     19 CAM         0.5410    1.4740    0.0220 ca        1 7MP     -0.149000
     20 CAN        -0.5300    2.3540   -0.2200 ca        1 7MP      0.087600
     21 NAU        -1.8620    1.9950    0.0240 n         1 7MP     -0.472100
     22 CAV        -2.3530    0.6910    0.0870 c         1 7MP      0.693700
     23 OAW        -1.6110   -0.2980   -0.0590 o         1 7MP     -0.592100
     24 CAX        -3.8170    0.5460    0.3190 ca        1 7MP     -0.164600
     25 CBC        -4.4840   -0.4800   -0.3610 ca        1 7MP     -0.029000
     26 CAY        -4.5160    1.3690    1.2090 ca        1 7MP     -0.075000
     27 CAZ        -5.8820    1.1740    1.4090 ca        1 7MP     -0.135000
     28 CBA        -6.5560    0.1630    0.7230 ca        1 7MP     -0.047000
     29 CBB        -5.8530   -0.6600   -0.1600 ca        1 7MP     -0.172300
     30 CBD        -6.5860   -1.7600   -0.9230 c3        1 7MP      0.689200
     31 FBE        -7.6880   -2.2590   -0.2760 f         1 7MP     -0.228633
     32 FBF        -7.0590   -1.3610   -2.1500 f         1 7MP     -0.228633
     33 FBG        -5.8170   -2.8640   -1.1980 f         1 7MP     -0.228633
     34 HAT1        6.8070    0.2960    1.9680 h1        1 7MP      0.087700
     35 HAT2        5.5650    1.3040    2.8660 h1        1 7MP      0.087700
     36 HAT3        5.6360   -0.5090    3.1280 h1        1 7MP      0.087700
     37 HAS1        6.7270   -4.9370   -0.3430 hn        1 7MP      0.481800
     38 HAS2        7.3790   -3.9980    0.9410 hn        1 7MP      0.481800
     39 H6          3.2440   -2.6180   -2.1310 h4        1 7MP      0.063100
     40 HAJ         2.1600   -0.3380   -1.5740 h4        1 7MP      0.212000
     41 HAR1        4.1430    3.6230   -0.1330 hc        1 7MP      0.061367
     42 HAR2        4.0110    2.9250   -1.8080 hc        1 7MP      0.061367
     43 HAR3        3.5250    4.6400   -1.4990 hc        1 7MP      0.061367
     44 HAP         1.2730    5.0490   -1.3390 ha        1 7MP      0.161000
     45 HAO        -1.0510    4.3770   -0.8890 ha        1 7MP      0.156000
     46 HAM         0.3430    0.4680    0.4340 ha        1 7MP      0.180000
     47 HNAU       -2.5240    2.7400    0.0260 hn        1 7MP      0.334500
     48 HBC        -3.9250   -1.1490   -1.0390 ha        1 7MP      0.172000
     49 HAY        -3.9960    2.1600    1.7740 ha        1 7MP      0.144000
     50 HAZ        -6.4320    1.8170    2.1140 ha        1 7MP      0.158000
     51 HBA        -7.6370    0.0060    0.8790 ha        1 7MP      0.167000
@<TRIPOS>BOND
     1    1    2 2   
     2    2    3 1   
     3    2   13 1   
     4    3    4 1   
     5    3    5 2   
     6    4   34 1   
     7    4   35 1   
     8    4   36 1   
     9    5    6 ar  
    10    5   11 ar  
    11    6    7 ar  
    12    7    8 1   
    13    7    9 ar  
    14    8   37 1   
    15    8   38 1   
    16    9   10 ar  
    17   10   11 ar  
    18   10   39 1   
    19   11   12 2   
    20   12   13 1   
    21   12   40 1   
    22   13   14 1   
    23   14   15 ar  
    24   14   19 ar  
    25   15   16 1   
    26   15   17 ar  
    27   16   41 1   
    28   16   42 1   
    29   16   43 1   
    30   17   18 ar  
    31   17   44 1   
    32   18   20 ar  
    33   18   45 1   
    34   19   20 ar  
    35   19   46 1   
    36   20   21 1   
    37   21   22 1   
    38   21   47 1   
    39   22   23 2   
    40   22   24 1   
    41   24   25 ar  
    42   24   26 ar  
    43   25   29 ar  
    44   25   48 1   
    45   26   27 ar  
    46   26   49 1   
    47   27   28 ar  
    48   27   50 1   
    49   28   29 ar  
    50   28   51 1   
    51   29   30 1   
    52   30   31 1   
    53   30   32 1   
    54   30   33 1   
@<TRIPOS>SUBSTRUCTURE
     1 7MP         1 TEMP              0 ****  ****    0 ROOT
