@<TRIPOS>MOLECULE
7MP
   53    56     1     0     0
SMALL
bcc


@<TRIPOS>ATOM
      1 OAK        -0.0410   -0.2210    0.1700 o         1 7MP     -0.453500
      2 CAH         1.1750   -0.0480    0.2330 c         1 7MP      0.781500
      3 NAG         1.8440    0.2230    1.4650 n         1 7MP     -0.283400
      4 CAT         1.0260    0.3930    2.6630 c3        1 7MP      0.048300
      5 C4          3.2180    0.3260    1.5080 ca        1 7MP      0.581300
      6 N3          3.8650    0.5720    2.7190 nb        1 7MP     -0.695000
      7 C2          5.2130    0.6410    2.6630 ca        1 7MP      0.837900
      8 NAS         5.9280    0.9050    3.9490 n4        1 7MP     -0.830300
      9 N1          6.0340    0.4940    1.5460 nb        1 7MP     -0.671000
     10 C6          5.4100    0.2660    0.3940 ca        1 7MP      0.598200
     11 C5          3.9860    0.1730    0.2930 ca        1 7MP     -0.441600
     12 CAJ         3.3110   -0.0470   -0.9410 cc        1 7MP      0.222600
     13 NAI         1.9790   -0.1360   -0.9880 n         1 7MP     -0.162200
     14 CAL         1.2700   -0.2880   -2.2390 ca        1 7MP     -0.067400
     15 CAQ         1.2370    0.7730   -3.1760 ca        1 7MP      0.020700
     16 CAR         1.8850    2.0830   -2.9370 c3        1 7MP     -0.095800
     17 CAP         0.5310    0.5730   -4.3720 ca        1 7MP     -0.094000
     18 CAO        -0.1380   -0.6140   -4.6410 ca        1 7MP     -0.043000
     19 CAM         0.5840   -1.4950   -2.4840 ca        1 7MP     -0.033000
     20 CAN        -0.1190   -1.6530   -3.6890 ca        1 7MP     -0.027400
     21 NAU        -0.8440   -2.8940   -3.9600 n4        1 7MP     -0.564200
     22 CAV         0.0700   -4.1350   -4.1000 c         1 7MP      0.602700
     23 OAW         1.0440   -4.1300   -3.3630 o         1 7MP     -0.445100
     24 CAX        -0.3490   -5.1160   -5.0870 ca        1 7MP     -0.229600
     25 CBC         0.6610   -5.9540   -5.6000 ca        1 7MP      0.009000
     26 CAY        -1.6830   -5.2930   -5.5040 ca        1 7MP     -0.072000
     27 CAZ        -1.9940   -6.2820   -6.4280 ca        1 7MP     -0.112000
     28 CBA        -0.9890   -7.1050   -6.9550 ca        1 7MP      0.020000
     29 CBB         0.3320   -6.9320   -6.5370 ca        1 7MP     -0.169300
     30 CBD         1.4500   -7.8150   -7.1120 c3        1 7MP      0.694200
     31 FBE         1.0160   -9.0230   -7.5820 f         1 7MP     -0.208967
     32 FBF         2.1080   -7.2250   -8.1610 f         1 7MP     -0.208967
     33 FBG         2.4310   -8.1070   -6.1980 f         1 7MP     -0.208967
     34 HAT1        1.2120    1.4130    3.0970 h1        1 7MP      0.113367
     35 HAT2       -0.0650    0.2960    2.4010 h1        1 7MP      0.113367
     36 HAT3        1.3000   -0.4020    3.4100 h1        1 7MP      0.113367
     37 HAS1        6.4770    1.7780    3.8580 hn        1 7MP      0.510467
     38 HAS2        5.2610    0.9990    4.7340 hn        1 7MP      0.510467
     39 H6          6.0690    0.1490   -0.4990 h4        1 7MP      0.107100
     40 HAJ         3.8910   -0.1440   -1.8940 h4        1 7MP      0.239000
     41 HAR1        2.9210    1.9680   -2.5340 hc        1 7MP      0.082367
     42 HAR2        1.9570    2.6770   -3.8870 hc        1 7MP      0.082367
     43 HAR3        1.2760    2.6850   -2.2120 hc        1 7MP      0.082367
     44 HAP         0.5000    1.3900   -5.1200 ha        1 7MP      0.206000
     45 HAO        -0.6800   -0.7160   -5.6010 ha        1 7MP      0.191000
     46 HAM         0.6030   -2.3120   -1.7390 ha        1 7MP      0.183000
     47 HNAU       -1.5030   -3.0690   -3.1890 hn        1 7MP      0.473800
     48 HBC         1.7080   -5.8450   -5.2610 ha        1 7MP      0.182000
     49 HAY        -2.5050   -4.6890   -5.0880 ha        1 7MP      0.135000
     50 HAZ        -3.0410   -6.4310   -6.7480 ha        1 7MP      0.191000
     51 HBA        -1.2410   -7.8940   -7.6910 ha        1 7MP      0.204000
     52 HAS3        6.5770    0.1220    4.1430 hn        1 7MP      0.510467
     53 HAU2       -1.3840   -2.7860   -4.8300 hn        1 7MP      0.473800
@<TRIPOS>BOND
     1    1    2 2   
     2    2    3 1   
     3    2   13 1   
     4    3    4 1   
     5    3    5 2   
     6    4   34 1   
     7    4   35 1   
     8    4   36 1   
     9    5    6 ar  
    10    5   11 ar  
    11    6    7 ar  
    12    7    8 1   
    13    7    9 ar  
    14    8   37 1   
    15    8   38 1   
    16    8   52 1   
    17    9   10 ar  
    18   10   11 ar  
    19   10   39 1   
    20   11   12 2   
    21   12   13 1   
    22   12   40 1   
    23   13   14 1   
    24   14   15 ar  
    25   14   19 ar  
    26   15   16 1   
    27   15   17 ar  
    28   16   41 1   
    29   16   42 1   
    30   16   43 1   
    31   17   18 ar  
    32   17   44 1   
    33   18   20 ar  
    34   18   45 1   
    35   19   20 ar  
    36   19   46 1   
    37   20   21 1   
    38   21   22 1   
    39   21   47 1   
    40   21   53 1   
    41   22   23 2   
    42   22   24 1   
    43   24   25 ar  
    44   24   26 ar  
    45   25   29 ar  
    46   25   48 1   
    47   26   27 ar  
    48   26   49 1   
    49   27   28 ar  
    50   27   50 1   
    51   28   29 ar  
    52   28   51 1   
    53   29   30 1   
    54   30   31 1   
    55   30   32 1   
    56   30   33 1   
@<TRIPOS>SUBSTRUCTURE
     1 7MP         1 TEMP              0 ****  ****    0 ROOT
