@<TRIPOS>MOLECULE
7MP
   51    44     1     0     0
SMALL
bcc


@<TRIPOS>ATOM
      1 OAK        -1.2380    1.5330    3.0290 o         1 7MP     -0.241000
      2 CAH        -0.0480    1.5670    3.0150 c1        1 7MP      0.383000
      3 NAG         0.6480    1.4850    4.1760 n2        1 7MP     -0.224000
      4 CAT        -0.0770    1.3570    5.4910 c2        1 7MP     -0.089000
      5 C4          2.0440    1.4850    4.1520 c2        1 7MP      0.268000
      6 N3          2.7560    1.3930    5.3360 n2        1 7MP     -0.284000
      7 C2          4.1210    1.3850    5.3150 c1        1 7MP      0.262000
      8 NAS         4.9660    1.4670    6.4400 n2        1 7MP     -0.266000
      9 N1          4.7950    1.4680    4.1130 n2        1 7MP     -0.198000
     10 C6          4.1110    1.5570    2.9680 c1        1 7MP      0.105000
     11 C5          2.6930    1.5660    2.9890 c1        1 7MP     -0.366000
     12 CAJ         1.9900    1.6490    1.8050 c2        1 7MP      0.197000
     13 NAI         0.6260    1.6500    1.8180 n1        1 7MP     -0.142000
     14 CAL        -0.0610    1.5960    0.6430 c1        1 7MP     -0.006000
     15 CAQ        -0.2840    2.7560   -0.0830 c1        1 7MP     -0.079000
     16 CAR        -0.0500    4.0700    0.5440 c3        1 7MP     -0.187000
     17 CAP        -0.9070    2.6890   -1.3250 c1        1 7MP     -0.089000
     18 CAO        -1.3080    1.4480   -1.8430 c1        1 7MP     -0.118000
     19 CAM        -0.4580    0.3700    0.1300 c1        1 7MP     -0.161000
     20 CAN        -1.0860    0.3010   -1.1240 c1        1 7MP      0.109000
     21 NAU        -1.3950   -1.0240   -1.7220 n         1 7MP     -0.328000
     22 CAV        -1.0380   -1.3060   -3.1450 c2        1 7MP      0.363000
     23 OAW        -0.5130   -0.4800   -3.7940 o         1 7MP     -0.315000
     24 CAX        -1.3930   -2.6190   -3.7590 c2        1 7MP     -0.143000
     25 CBC        -2.3440   -2.6750   -4.7880 c2        1 7MP     -0.027000
     26 CAY        -0.8200   -3.7570   -3.3060 c1        1 7MP     -0.079000
     27 CAZ        -1.1790   -5.0040   -3.8690 c1        1 7MP     -0.092500
     28 CBA        -2.1220   -5.0630   -4.8900 c1        1 7MP     -0.092500
     29 CBB        -2.7020   -3.9200   -5.3500 c1        1 7MP     -0.163000
     30 CBD        -3.7110   -3.9800   -6.5550 c3        1 7MP      0.468000
     31 FBE        -4.1080   -5.3070   -6.7680 f         1 7MP     -0.157000
     32 FBF        -4.7580   -3.2510   -6.2810 f         1 7MP     -0.157000
     33 FBG        -3.0980   -3.4960   -7.6950 f         1 7MP     -0.157000
     34 HAT1       -1.0230    1.4110    5.3460 ha        1 7MP      0.127333
     35 HAT2        0.1250    0.5580    5.8700 ha        1 7MP      0.127333
     36 HAT3        0.2050    2.0870    6.0940 ha        1 7MP      0.127333
     37 HAS1        5.8800    1.4760    6.3300 hn        1 7MP      0.277500
     38 HAS2        4.6060    1.5530    7.2790 hn        1 7MP      0.277500
     39 H6          4.6140    1.6220    2.0690 ha        1 7MP      0.198000
     40 HAJ         2.4670    1.7040    0.9660 h4        1 7MP      0.208000
     41 HAR1       -0.5490    4.7900    0.0240 hc        1 7MP      0.093000
     42 HAR2       -0.3720    4.0510    1.4640 hc        1 7MP      0.093000
     43 HAR3        0.9250    4.2710    0.5360 hc        1 7MP      0.093000
     44 HAP        -1.0680    3.5310   -1.8510 ha        1 7MP      0.162000
     45 HAO        -1.7310    1.4010   -2.6860 ha        1 7MP      0.199000
     46 HAM        -0.2970   -0.4620    0.6490 ha        1 7MP      0.148000
     47 HNAU       -1.7110   -1.7120   -1.1800 hn        1 7MP      0.239000
     48 HBC        -2.8000   -1.7720   -5.1460 ha        1 7MP      0.175000
     49 HAY        -0.1770   -3.7190   -2.6090 ha        1 7MP      0.140000
     50 HAZ        -0.7810   -5.7920   -3.5540 ha        1 7MP      0.160500
     51 HBA        -2.3630   -5.9090   -5.2690 ha        1 7MP      0.160500
@<TRIPOS>BOND
     1    1    2 1   
     2    2    3 1   
     3    3    5 1   
     4    4   34 1   
     5    4   35 1   
     6    4   36 1   
     7    5    6 1   
     8    5   11 1   
     9    6    7 1   
    10    7    9 1   
    11    8   37 1   
    12    8   38 1   
    13    9   10 1   
    14   10   39 1   
    15   11   12 1   
    16   12   13 1   
    17   12   40 1   
    18   14   19 1   
    19   15   16 1   
    20   15   17 1   
    21   16   41 1   
    22   16   42 1   
    23   16   43 1   
    24   17   44 1   
    25   18   20 1   
    26   18   45 1   
    27   19   46 1   
    28   20   21 1   
    29   21   22 1   
    30   21   47 1   
    31   22   23 1   
    32   22   24 1   
    33   24   25 1   
    34   24   26 1   
    35   25   29 1   
    36   25   48 1   
    37   26   49 1   
    38   27   28 1   
    39   27   50 1   
    40   28   51 1   
    41   29   30 1   
    42   30   31 1   
    43   30   32 1   
    44   30   33 1   
@<TRIPOS>SUBSTRUCTURE
     1 7MP         1 TEMP              0 ****  ****    0 ROOT
