@<TRIPOS>MOLECULE
7MP
   51    54     1     0     0
SMALL
bcc


@<TRIPOS>ATOM
      1 OAK        -0.0180    1.0190    0.0680 o         1 7MP     -0.522500
      2 CAH         1.1560    0.6290    0.1000 c         1 7MP      0.796500
      3 NAG         1.8990    0.6410    1.3130 n         1 7MP     -0.328400
      4 CAT         1.2390    1.1080    2.5190 c3        1 7MP      0.066300
      5 C4          3.2120    0.1800    1.3570 ca        1 7MP      0.596300
      6 N3          3.8980    0.1860    2.5270 nb        1 7MP     -0.811000
      7 C2          5.2100   -0.2900    2.4920 ca        1 7MP      0.981900
      8 NAS         5.9160   -0.2940    3.6500 nv        1 7MP     -0.869500
      9 N1          5.8650   -0.7760    1.3180 nb        1 7MP     -0.725000
     10 C6          5.1710   -0.7680    0.2090 ca        1 7MP      0.572200
     11 C5          3.8120   -0.3000    0.1180 ca        1 7MP     -0.493600
     12 CAJ         3.0750   -0.3010   -1.0660 cc        1 7MP      0.201600
     13 NAI         1.8070    0.1600   -1.1030 n         1 7MP     -0.204200
     14 CAL         1.0510    0.0740   -2.3270 ca        1 7MP     -0.019400
     15 CAQ         0.6410    1.2340   -3.0120 ca        1 7MP     -0.047300
     16 CAR         0.9280    2.5990   -2.5180 c3        1 7MP     -0.070800
     17 CAP        -0.0750    1.0600   -4.2070 ca        1 7MP     -0.092000
     18 CAO        -0.3530   -0.1950   -4.7200 ca        1 7MP     -0.137000
     19 CAM         0.7630   -1.2130   -2.8200 ca        1 7MP     -0.149000
     20 CAN         0.0760   -1.3630   -4.0380 ca        1 7MP      0.087600
     21 NAU        -0.2140   -2.6210   -4.5810 ns        1 7MP     -0.472100
     22 CAV         0.4650   -3.8060   -4.2950 c         1 7MP      0.693700
     23 OAW         1.4110   -3.8410   -3.4870 o         1 7MP     -0.592100
     24 CAX         0.0080   -5.0220   -5.0230 ca        1 7MP     -0.164600
     25 CBC         0.9850   -5.9340   -5.4410 ca        1 7MP     -0.029000
     26 CAY        -1.3460   -5.2860   -5.2580 ca        1 7MP     -0.075000
     27 CAZ        -1.7210   -6.4540   -5.9220 ca        1 7MP     -0.135000
     28 CBA        -0.7520   -7.3590   -6.3560 ca        1 7MP     -0.047000
     29 CBB         0.5980   -7.0930   -6.1130 ca        1 7MP     -0.172300
     30 CBD         1.6640   -8.0730   -6.5950 c3        1 7MP      0.689200
     31 FBE         1.2420   -9.3760   -6.6740 f         1 7MP     -0.228633
     32 FBF         2.1470   -7.7920   -7.8510 f         1 7MP     -0.228633
     33 FBG         2.7860   -8.1210   -5.8040 f         1 7MP     -0.228633
     34 HAT1        0.1900    1.4340    2.2820 h1        1 7MP      0.087700
     35 HAT2        1.2100    0.2770    3.2730 h1        1 7MP      0.087700
     36 HAT3        1.8140    1.9770    2.9400 h1        1 7MP      0.087700
     37 HAS1        6.8550   -0.6280    3.6650 hn        1 7MP      0.481800
     38 HAS2        5.5040    0.0330    4.4960 hn        1 7MP      0.481800
     39 H6          5.6820   -1.1490   -0.7010 h4        1 7MP      0.063100
     40 HAJ         3.5080   -0.6840   -2.0200 h4        1 7MP      0.212000
     41 HAR1        0.5570    3.3730   -3.2360 hc        1 7MP      0.061367
     42 HAR2        0.4190    2.7680   -1.5340 hc        1 7MP      0.061367
     43 HAR3        2.0280    2.7510   -2.3850 hc        1 7MP      0.061367
     44 HAP        -0.4190    1.9550   -4.7530 ha        1 7MP      0.161000
     45 HAO        -0.9130   -0.2770   -5.6660 ha        1 7MP      0.156000
     46 HAM         1.0780   -2.1070   -2.2520 ha        1 7MP      0.180000
     47 HNAU       -0.8780   -2.6360   -5.3240 hn        1 7MP      0.334500
     48 HBC         2.0500   -5.7400   -5.2270 ha        1 7MP      0.172000
     49 HAY        -2.1260   -4.5920   -4.9060 ha        1 7MP      0.144000
     50 HAZ        -2.7870   -6.6650   -6.1020 ha        1 7MP      0.158000
     51 HBA        -1.0460   -8.2840   -6.8810 ha        1 7MP      0.167000
@<TRIPOS>BOND
     1    1    2 2   
     2    2    3 1   
     3    2   13 1   
     4    3    4 1   
     5    3    5 2   
     6    4   34 1   
     7    4   35 1   
     8    4   36 1   
     9    5    6 ar  
    10    5   11 ar  
    11    6    7 ar  
    12    7    8 1   
    13    7    9 ar  
    14    8   37 1   
    15    8   38 1   
    16    9   10 ar  
    17   10   11 ar  
    18   10   39 1   
    19   11   12 2   
    20   12   13 1   
    21   12   40 1   
    22   13   14 1   
    23   14   15 ar  
    24   14   19 ar  
    25   15   16 1   
    26   15   17 ar  
    27   16   41 1   
    28   16   42 1   
    29   16   43 1   
    30   17   18 ar  
    31   17   44 1   
    32   18   20 ar  
    33   18   45 1   
    34   19   20 ar  
    35   19   46 1   
    36   20   21 1   
    37   21   22 1   
    38   21   47 1   
    39   22   23 2   
    40   22   24 1   
    41   24   25 ar  
    42   24   26 ar  
    43   25   29 ar  
    44   25   48 1   
    45   26   27 ar  
    46   26   49 1   
    47   27   28 ar  
    48   27   50 1   
    49   28   29 ar  
    50   28   51 1   
    51   29   30 1   
    52   30   31 1   
    53   30   32 1   
    54   30   33 1   
@<TRIPOS>SUBSTRUCTURE
     1 7MP         1 TEMP              0 ****  ****    0 ROOT
