@<TRIPOS>MOLECULE
7MQ
  112   113     1     0     0
SMALL
bcc


@<TRIPOS>ATOM
      1 C1          0.3250    0.6600    0.7250 c         1 7MQ      0.574900
      2 O1         -0.3170    0.2550    1.7040 o         1 7MQ     -0.519100
      3 C2         -0.1880    0.5230   -0.6600 cc        1 7MQ     -0.126400
      4 C3M        -0.1270    1.0540   -3.0850 c3        1 7MQ     -0.069900
      5 C3          0.3980    1.1530   -1.7010 cd        1 7MQ     -0.127400
      6 C4          1.6040    2.0010   -1.5220 c         1 7MQ      0.570900
      7 O4          2.0500    2.7010   -2.4410 o         1 7MQ     -0.515100
      8 C5          2.2580    1.9600   -0.1970 ca        1 7MQ     -0.133600
      9 C6          3.5000    2.5770   -0.0210 ca        1 7MQ     -0.085000
     10 C7          4.1310    2.5420    1.2240 ca        1 7MQ     -0.117000
     11 C8          3.5220    1.8970    2.2980 ca        1 7MQ     -0.117000
     12 C9          2.2790    1.2850    2.1310 ca        1 7MQ     -0.086000
     13 C10         1.6430    1.3100    0.8860 ca        1 7MQ     -0.132600
     14 C11        -1.3990   -0.3370   -0.8210 c3        1 7MQ     -0.015000
     15 C12        -1.0350   -1.7380   -1.1550 c2        1 7MQ     -0.187200
     16 C13        -1.2700   -2.8030   -0.3730 c2        1 7MQ     -0.092400
     17 C14        -1.9120   -2.7090    0.9600 c3        1 7MQ     -0.072900
     18 C15        -0.9050   -4.1770   -0.8290 c3        1 7MQ     -0.044200
     19 C16         0.3470   -4.6810   -0.1330 c3        1 7MQ     -0.043200
     20 C17         0.6990   -6.0570   -0.5550 c2        1 7MQ     -0.175200
     21 C18         1.8430   -6.6680   -0.2040 c2        1 7MQ     -0.122400
     22 C19         2.8650   -6.0020    0.6390 c3        1 7MQ     -0.059900
     23 C20         2.1430   -8.0610   -0.6380 c3        1 7MQ     -0.039200
     24 C21         3.2930   -8.1030   -1.6290 c3        1 7MQ     -0.043200
     25 C22         3.6340   -9.4890   -2.0240 c2        1 7MQ     -0.174200
     26 C23         4.5130   -9.7860   -2.9950 c2        1 7MQ     -0.123400
     27 C24         5.2170   -8.7350   -3.7690 c3        1 7MQ     -0.058900
     28 C25         4.8370  -11.1980   -3.3440 c3        1 7MQ     -0.038200
     29 C26         4.3170  -11.5680   -4.7220 c3        1 7MQ     -0.044200
     30 C27         4.6820  -12.9540   -5.0990 c2        1 7MQ     -0.174200
     31 C28         4.2190  -13.5660   -6.2020 c2        1 7MQ     -0.124400
     32 C29         3.2850  -12.8980   -7.1400 c3        1 7MQ     -0.058900
     33 C30         4.6300  -14.9560   -6.5480 c3        1 7MQ     -0.038200
     34 C31         3.4730  -15.9300   -6.4190 c3        1 7MQ     -0.044200
     35 C32         3.8590  -17.3050   -6.8140 c2        1 7MQ     -0.174200
     36 C33         3.0600  -18.3720   -6.6510 c2        1 7MQ     -0.124400
     37 C34         1.7110  -18.2620   -6.0460 c3        1 7MQ     -0.058900
     38 C35         3.4870  -19.7340   -7.0820 c3        1 7MQ     -0.038200
     39 C36         3.7160  -20.6510   -5.8940 c3        1 7MQ     -0.043200
     40 C37         4.0880  -22.0220   -6.3140 c2        1 7MQ     -0.174200
     41 C38         4.4830  -22.9770   -5.4560 c2        1 7MQ     -0.123400
     42 C39         4.5890  -22.7310   -3.9980 c3        1 7MQ     -0.058900
     43 C40         4.8290  -24.3480   -5.9270 c3        1 7MQ     -0.038200
     44 C41         6.3120  -24.6340   -5.7750 c3        1 7MQ     -0.043200
     45 C42         6.6570  -26.0140   -6.1880 c2        1 7MQ     -0.177200
     46 C43         7.9180  -26.4700   -6.2610 c2        1 7MQ     -0.124400
     47 C44         8.2240  -27.8610   -6.6740 c3        1 7MQ     -0.057900
     48 C45         9.0860  -25.6160   -5.9390 c3        1 7MQ     -0.057900
     49 H3M1        0.5660    1.5400   -3.8160 hc        1 7MQ      0.060033
     50 H3M2       -0.2610   -0.0180   -3.3770 hc        1 7MQ      0.060033
     51 H3M3       -1.1220    1.5620   -3.1530 hc        1 7MQ      0.060033
     52 H6          3.9700    3.0920   -0.8750 ha        1 7MQ      0.160000
     53 H7          5.1110    3.0280    1.3530 ha        1 7MQ      0.142000
     54 H8          4.0180    1.8700    3.2800 ha        1 7MQ      0.142000
     55 H9          1.7840    0.7790    2.9770 ha        1 7MQ      0.159000
     56 H111       -2.0450    0.0730   -1.6470 hc        1 7MQ      0.068700
     57 H112       -2.0060   -0.2960    0.1260 hc        1 7MQ      0.068700
     58 H12        -0.5450   -1.8650   -2.1350 ha        1 7MQ      0.120000
     59 H141       -1.8180   -3.6710    1.5220 hc        1 7MQ      0.050367
     60 H142       -3.0010   -2.4760    0.8470 hc        1 7MQ      0.050367
     61 H143       -1.4420   -1.8960    1.5720 hc        1 7MQ      0.050367
     62 H151       -0.7400   -4.1910   -1.9390 hc        1 7MQ      0.047700
     63 H152       -1.7600   -4.8740   -0.6120 hc        1 7MQ      0.047700
     64 H161        1.2030   -3.9860   -0.3530 hc        1 7MQ      0.052200
     65 H162        0.1920   -4.6600    0.9810 hc        1 7MQ      0.052200
     66 H17        -0.0430   -6.5760   -1.1840 ha        1 7MQ      0.123000
     67 H191        3.6450   -6.7250    0.9820 hc        1 7MQ      0.041700
     68 H192        3.3690   -5.1870    0.0600 hc        1 7MQ      0.041700
     69 H193        2.3890   -5.5390    1.5400 hc        1 7MQ      0.041700
     70 H201        1.2360   -8.5300   -1.1050 hc        1 7MQ      0.046200
     71 H202        2.4060   -8.6760    0.2650 hc        1 7MQ      0.046200
     72 H211        3.0230   -7.5040   -2.5420 hc        1 7MQ      0.050200
     73 H212        4.1960   -7.6100   -1.1740 hc        1 7MQ      0.050200
     74 H22         3.1240  -10.2920   -1.4670 ha        1 7MQ      0.123000
     75 H241        4.4980   -8.2110   -4.4480 hc        1 7MQ      0.041367
     76 H242        6.0380   -9.1670   -4.3910 hc        1 7MQ      0.041367
     77 H243        5.6590   -7.9710   -3.0800 hc        1 7MQ      0.041367
     78 H251        4.4000  -11.9000   -2.5850 hc        1 7MQ      0.046200
     79 H252        5.9520  -11.3340   -3.3170 hc        1 7MQ      0.046200
     80 H261        3.1990  -11.4510   -4.7440 hc        1 7MQ      0.050200
     81 H262        4.7320  -10.8510   -5.4830 hc        1 7MQ      0.050200
     82 H27         5.3740  -13.4750   -4.4180 ha        1 7MQ      0.123000
     83 H291        2.2790  -12.7820   -6.6640 hc        1 7MQ      0.041367
     84 H292        3.1630  -13.4860   -8.0820 hc        1 7MQ      0.041367
     85 H293        3.6600  -11.8770   -7.4060 hc        1 7MQ      0.041367
     86 H301        5.4710  -15.2920   -5.8850 hc        1 7MQ      0.046200
     87 H302        5.0140  -14.9700   -7.6040 hc        1 7MQ      0.046200
     88 H311        3.1010  -15.9310   -5.3580 hc        1 7MQ      0.050200
     89 H312        2.6180  -15.5820   -7.0620 hc        1 7MQ      0.050200
     90 H32         4.8590  -17.4170   -7.2650 ha        1 7MQ      0.123000
     91 H341        1.1310  -19.2090   -6.1670 hc        1 7MQ      0.041367
     92 H342        1.1350  -17.4300   -6.5240 hc        1 7MQ      0.041367
     93 H343        1.7970  -18.0380   -4.9530 hc        1 7MQ      0.041367
     94 H351        2.6930  -20.1730   -7.7450 hc        1 7MQ      0.045700
     95 H352        4.4300  -19.6750   -7.6890 hc        1 7MQ      0.045700
     96 H361        4.5240  -20.2230   -5.2400 hc        1 7MQ      0.050200
     97 H362        2.7820  -20.6920   -5.2680 hc        1 7MQ      0.050200
     98 H37         4.0200  -22.2330   -7.3940 ha        1 7MQ      0.123000
     99 H391        5.4500  -22.0480   -3.7850 hc        1 7MQ      0.041367
    100 H392        3.6590  -22.2410   -3.6150 hc        1 7MQ      0.041367
    101 H393        4.7460  -23.6820   -3.4340 hc        1 7MQ      0.041367
    102 H401        4.5370  -24.4780   -7.0030 hc        1 7MQ      0.045700
    103 H402        4.2410  -25.0980   -5.3300 hc        1 7MQ      0.045700
    104 H411        6.6160  -24.4770   -4.7020 hc        1 7MQ      0.049700
    105 H412        6.9010  -23.8980   -6.3880 hc        1 7MQ      0.049700
    106 H42         5.8090  -26.6720   -6.4370 ha        1 7MQ      0.122000
    107 H441        8.7510  -28.3990   -5.8470 hc        1 7MQ      0.040533
    108 H442        8.8940  -27.8560   -7.5700 hc        1 7MQ      0.040533
    109 H443        7.2970  -28.4300   -6.9300 hc        1 7MQ      0.040533
    110 H451        8.9590  -25.1400   -4.9350 hc        1 7MQ      0.040533
    111 H452       10.0340  -26.2080   -5.9330 hc        1 7MQ      0.040533
    112 H453        9.1860  -24.7980   -6.6970 hc        1 7MQ      0.040533
@<TRIPOS>BOND
     1    1    2 2   
     2    1    3 1   
     3    1   13 1   
     4    3    5 2   
     5    3   14 1   
     6    4    5 1   
     7    4   49 1   
     8    4   50 1   
     9    4   51 1   
    10    5    6 1   
    11    6    7 2   
    12    6    8 1   
    13    8    9 ar  
    14    8   13 ar  
    15    9   10 ar  
    16    9   52 1   
    17   10   11 ar  
    18   10   53 1   
    19   11   12 ar  
    20   11   54 1   
    21   12   13 ar  
    22   12   55 1   
    23   14   15 1   
    24   14   56 1   
    25   14   57 1   
    26   15   16 2   
    27   15   58 1   
    28   16   17 1   
    29   16   18 1   
    30   17   59 1   
    31   17   60 1   
    32   17   61 1   
    33   18   19 1   
    34   18   62 1   
    35   18   63 1   
    36   19   20 1   
    37   19   64 1   
    38   19   65 1   
    39   20   21 2   
    40   20   66 1   
    41   21   22 1   
    42   21   23 1   
    43   22   67 1   
    44   22   68 1   
    45   22   69 1   
    46   23   24 1   
    47   23   70 1   
    48   23   71 1   
    49   24   25 1   
    50   24   72 1   
    51   24   73 1   
    52   25   26 2   
    53   25   74 1   
    54   26   27 1   
    55   26   28 1   
    56   27   75 1   
    57   27   76 1   
    58   27   77 1   
    59   28   29 1   
    60   28   78 1   
    61   28   79 1   
    62   29   30 1   
    63   29   80 1   
    64   29   81 1   
    65   30   31 2   
    66   30   82 1   
    67   31   32 1   
    68   31   33 1   
    69   32   83 1   
    70   32   84 1   
    71   32   85 1   
    72   33   34 1   
    73   33   86 1   
    74   33   87 1   
    75   34   35 1   
    76   34   88 1   
    77   34   89 1   
    78   35   36 2   
    79   35   90 1   
    80   36   37 1   
    81   36   38 1   
    82   37   91 1   
    83   37   92 1   
    84   37   93 1   
    85   38   39 1   
    86   38   94 1   
    87   38   95 1   
    88   39   40 1   
    89   39   96 1   
    90   39   97 1   
    91   40   41 2   
    92   40   98 1   
    93   41   42 1   
    94   41   43 1   
    95   42   99 1   
    96   42  100 1   
    97   42  101 1   
    98   43   44 1   
    99   43  102 1   
   100   43  103 1   
   101   44   45 1   
   102   44  104 1   
   103   44  105 1   
   104   45   46 2   
   105   45  106 1   
   106   46   47 1   
   107   46   48 1   
   108   47  107 1   
   109   47  108 1   
   110   47  109 1   
   111   48  110 1   
   112   48  111 1   
   113   48  112 1   
@<TRIPOS>SUBSTRUCTURE
     1 7MQ         1 TEMP              0 ****  ****    0 ROOT
