@<TRIPOS>MOLECULE
7MQ
  112   113     1     0     0
SMALL
bcc


@<TRIPOS>ATOM
      1 C1          0.3090   -0.0310  -11.5610 c         1 7MQ      0.574900
      2 O1          1.4900    0.3410  -11.5910 o         1 7MQ     -0.519100
      3 C2         -0.7900    0.8820  -11.1590 cc        1 7MQ     -0.126400
      4 C3M        -3.1950    1.4700  -10.9700 c3        1 7MQ     -0.069900
      5 C3         -2.0880    0.5520  -11.3340 cd        1 7MQ     -0.127400
      6 C4         -2.4900   -0.7530  -11.9170 c         1 7MQ      0.570900
      7 O4         -3.6660   -0.9950  -12.2220 o         1 7MQ     -0.515100
      8 C5         -1.4220   -1.7580  -12.1050 ca        1 7MQ     -0.133600
      9 C6         -1.7610   -3.0660  -12.4640 ca        1 7MQ     -0.085000
     10 C7         -0.7640   -4.0260  -12.6400 ca        1 7MQ     -0.117000
     11 C8          0.5750   -3.6830  -12.4650 ca        1 7MQ     -0.117000
     12 C9          0.9210   -2.3770  -12.1140 ca        1 7MQ     -0.086000
     13 C10        -0.0730   -1.4110  -11.9300 ca        1 7MQ     -0.132600
     14 C11        -0.3650    2.1870  -10.5700 c3        1 7MQ     -0.015000
     15 C12        -0.3020    2.1240   -9.0870 c2        1 7MQ     -0.187200
     16 C13         0.8170    2.2550   -8.3570 c2        1 7MQ     -0.092400
     17 C14         2.1600    2.4570   -8.9540 c3        1 7MQ     -0.072900
     18 C15         0.7610    2.2230   -6.8660 c3        1 7MQ     -0.044200
     19 C16         1.2600    0.8980   -6.3170 c3        1 7MQ     -0.043200
     20 C17         1.2380    0.8690   -4.8370 c2        1 7MQ     -0.175200
     21 C18         1.4820   -0.2380   -4.1160 c2        1 7MQ     -0.122400
     22 C19         1.7890   -1.5410   -4.7530 c3        1 7MQ     -0.059900
     23 C20         1.4660   -0.2130   -2.6260 c3        1 7MQ     -0.039200
     24 C21         0.2970   -1.0020   -2.0640 c3        1 7MQ     -0.043200
     25 C22         0.3050   -1.0280   -0.5840 c2        1 7MQ     -0.174200
     26 C23        -0.6990   -1.5340    0.1520 c2        1 7MQ     -0.123400
     27 C24        -1.9180   -2.1060   -0.4660 c3        1 7MQ     -0.058900
     28 C25        -0.6360   -1.5540    1.6410 c3        1 7MQ     -0.038200
     29 C26        -1.6480   -0.6050    2.2580 c3        1 7MQ     -0.044200
     30 C27        -1.6310   -0.6610    3.7380 c2        1 7MQ     -0.174200
     31 C28        -2.3260    0.1840    4.5170 c2        1 7MQ     -0.124400
     32 C29        -3.1720    1.2620    3.9520 c3        1 7MQ     -0.058900
     33 C30        -2.2900    0.0760    6.0030 c3        1 7MQ     -0.038200
     34 C31        -1.5720    1.2560    6.6330 c3        1 7MQ     -0.044200
     35 C32        -1.5810    1.1860    8.1130 c2        1 7MQ     -0.174200
     36 C33        -0.8890    2.0280    8.8980 c2        1 7MQ     -0.124400
     37 C34        -0.0410    3.1080    8.3380 c3        1 7MQ     -0.058900
     38 C35        -0.9440    1.9270   10.3830 c3        1 7MQ     -0.038200
     39 C36         0.3830    1.4720   10.9640 c3        1 7MQ     -0.043200
     40 C37         0.3540    1.4220   12.4440 c2        1 7MQ     -0.174200
     41 C38         1.3510    0.9130   13.1860 c2        1 7MQ     -0.123400
     42 C39         2.5760    0.3440   12.5760 c3        1 7MQ     -0.058900
     43 C40         1.2820    0.9020   14.6750 c3        1 7MQ     -0.038200
     44 C41         1.1490   -0.5090   15.2190 c3        1 7MQ     -0.043200
     45 C42         1.1360   -0.5340   16.7000 c2        1 7MQ     -0.177200
     46 C43         0.9060   -1.6460   17.4180 c2        1 7MQ     -0.124400
     47 C44         0.9060   -1.6330   18.9000 c3        1 7MQ     -0.057900
     48 C45         0.6330   -2.9560   16.7790 c3        1 7MQ     -0.057900
     49 H3M1       -4.1880    0.9670  -11.0730 hc        1 7MQ      0.060033
     50 H3M2       -3.0800    1.8230   -9.9150 hc        1 7MQ      0.060033
     51 H3M3       -3.1840    2.3660  -11.6420 hc        1 7MQ      0.060033
     52 H6         -2.8230   -3.3260  -12.6080 ha        1 7MQ      0.160000
     53 H7         -1.0390   -5.0550  -12.9200 ha        1 7MQ      0.142000
     54 H8          1.3630   -4.4380  -12.6060 ha        1 7MQ      0.142000
     55 H9          1.9780   -2.0920  -11.9820 ha        1 7MQ      0.159000
     56 H111       -1.0990    2.9900  -10.8640 hc        1 7MQ      0.068700
     57 H112        0.6330    2.4770  -11.0020 hc        1 7MQ      0.068700
     58 H12        -1.2740    1.9660   -8.5910 ha        1 7MQ      0.120000
     59 H141        2.9650    2.3270   -8.1890 hc        1 7MQ      0.050367
     60 H142        2.3410    1.7250   -9.7830 hc        1 7MQ      0.050367
     61 H143        2.2420    3.4900   -9.3750 hc        1 7MQ      0.050367
     62 H151       -0.2900    2.3960   -6.5100 hc        1 7MQ      0.047700
     63 H152        1.3920    3.0580   -6.4580 hc        1 7MQ      0.047700
     64 H161        2.3090    0.7130   -6.6790 hc        1 7MQ      0.052200
     65 H162        0.6260    0.0620   -6.7230 hc        1 7MQ      0.052200
     66 H17         1.0110    1.8240   -4.3360 ha        1 7MQ      0.123000
     67 H191        2.5760   -1.4180   -5.5380 hc        1 7MQ      0.041700
     68 H192        2.1500   -2.2870   -4.0030 hc        1 7MQ      0.041700
     69 H193        0.8720   -1.9540   -5.2460 hc        1 7MQ      0.041700
     70 H201        1.4110    0.8450   -2.2520 hc        1 7MQ      0.046200
     71 H202        2.4290   -0.6490   -2.2430 hc        1 7MQ      0.046200
     72 H211        0.3340   -2.0560   -2.4580 hc        1 7MQ      0.050200
     73 H212       -0.6670   -0.5540   -2.4300 hc        1 7MQ      0.050200
     74 H22         1.1990   -0.6070   -0.0960 ha        1 7MQ      0.123000
     75 H241       -1.6450   -2.8280   -1.2770 hc        1 7MQ      0.041367
     76 H242       -2.5450   -2.6430    0.2870 hc        1 7MQ      0.041367
     77 H243       -2.5360   -1.2920   -0.9240 hc        1 7MQ      0.041367
     78 H251        0.3930   -1.2750    1.9940 hc        1 7MQ      0.046200
     79 H252       -0.8370   -2.6000    2.0010 hc        1 7MQ      0.046200
     80 H261       -2.6780   -0.8640    1.8860 hc        1 7MQ      0.050200
     81 H262       -1.4350    0.4440    1.9150 hc        1 7MQ      0.050200
     82 H27        -1.0080   -1.4520    4.1860 ha        1 7MQ      0.123000
     83 H291       -3.8380    0.8570    3.1490 hc        1 7MQ      0.041367
     84 H292       -3.8120    1.7330    4.7380 hc        1 7MQ      0.041367
     85 H293       -2.5290    2.0580    3.4970 hc        1 7MQ      0.041367
     86 H301       -1.7800   -0.8740    6.3150 hc        1 7MQ      0.046200
     87 H302       -3.3440    0.0290    6.3910 hc        1 7MQ      0.046200
     88 H311       -2.0640    2.2130    6.3020 hc        1 7MQ      0.050200
     89 H312       -0.5120    1.2920    6.2610 hc        1 7MQ      0.050200
     90 H32        -2.2010    0.3900    8.5570 ha        1 7MQ      0.123000
     91 H341       -0.6050    3.6890    7.5660 hc        1 7MQ      0.041367
     92 H342        0.2980    3.8140    9.1350 hc        1 7MQ      0.041367
     93 H343        0.8650    2.6710    7.8460 hc        1 7MQ      0.041367
     94 H351       -1.7490    1.2110   10.6980 hc        1 7MQ      0.045700
     95 H352       -1.2120    2.9330   10.8080 hc        1 7MQ      0.045700
     96 H361        1.1980    2.1730   10.6290 hc        1 7MQ      0.050200
     97 H362        0.6420    0.4570   10.5550 hc        1 7MQ      0.050200
     98 H37        -0.5470    1.8370   12.9250 ha        1 7MQ      0.123000
     99 H391        2.9960    1.0460   11.8120 hc        1 7MQ      0.041367
    100 H392        3.3620    0.1480   13.3450 hc        1 7MQ      0.041367
    101 H393        2.3370   -0.6210   12.0620 hc        1 7MQ      0.041367
    102 H401        0.4140    1.5180   15.0320 hc        1 7MQ      0.045700
    103 H402        2.2150    1.3750   15.0870 hc        1 7MQ      0.045700
    104 H411        2.0020   -1.1380   14.8410 hc        1 7MQ      0.049700
    105 H412        0.2050   -0.9760   14.8240 hc        1 7MQ      0.049700
    106 H42         1.3330    0.4260   17.2040 ha        1 7MQ      0.122000
    107 H441       -0.0780   -1.9980   19.2860 hc        1 7MQ      0.040533
    108 H442        1.7060   -2.3120   19.2890 hc        1 7MQ      0.040533
    109 H443        1.0870   -0.6080   19.3050 hc        1 7MQ      0.040533
    110 H451        1.4260   -3.1980   16.0270 hc        1 7MQ      0.040533
    111 H452        0.6000   -3.7780   17.5350 hc        1 7MQ      0.040533
    112 H453       -0.3490   -2.9270   16.2440 hc        1 7MQ      0.040533
@<TRIPOS>BOND
     1    1    2 2   
     2    1    3 1   
     3    1   13 1   
     4    3    5 2   
     5    3   14 1   
     6    4    5 1   
     7    4   49 1   
     8    4   50 1   
     9    4   51 1   
    10    5    6 1   
    11    6    7 2   
    12    6    8 1   
    13    8    9 ar  
    14    8   13 ar  
    15    9   10 ar  
    16    9   52 1   
    17   10   11 ar  
    18   10   53 1   
    19   11   12 ar  
    20   11   54 1   
    21   12   13 ar  
    22   12   55 1   
    23   14   15 1   
    24   14   56 1   
    25   14   57 1   
    26   15   16 2   
    27   15   58 1   
    28   16   17 1   
    29   16   18 1   
    30   17   59 1   
    31   17   60 1   
    32   17   61 1   
    33   18   19 1   
    34   18   62 1   
    35   18   63 1   
    36   19   20 1   
    37   19   64 1   
    38   19   65 1   
    39   20   21 2   
    40   20   66 1   
    41   21   22 1   
    42   21   23 1   
    43   22   67 1   
    44   22   68 1   
    45   22   69 1   
    46   23   24 1   
    47   23   70 1   
    48   23   71 1   
    49   24   25 1   
    50   24   72 1   
    51   24   73 1   
    52   25   26 2   
    53   25   74 1   
    54   26   27 1   
    55   26   28 1   
    56   27   75 1   
    57   27   76 1   
    58   27   77 1   
    59   28   29 1   
    60   28   78 1   
    61   28   79 1   
    62   29   30 1   
    63   29   80 1   
    64   29   81 1   
    65   30   31 2   
    66   30   82 1   
    67   31   32 1   
    68   31   33 1   
    69   32   83 1   
    70   32   84 1   
    71   32   85 1   
    72   33   34 1   
    73   33   86 1   
    74   33   87 1   
    75   34   35 1   
    76   34   88 1   
    77   34   89 1   
    78   35   36 2   
    79   35   90 1   
    80   36   37 1   
    81   36   38 1   
    82   37   91 1   
    83   37   92 1   
    84   37   93 1   
    85   38   39 1   
    86   38   94 1   
    87   38   95 1   
    88   39   40 1   
    89   39   96 1   
    90   39   97 1   
    91   40   41 2   
    92   40   98 1   
    93   41   42 1   
    94   41   43 1   
    95   42   99 1   
    96   42  100 1   
    97   42  101 1   
    98   43   44 1   
    99   43  102 1   
   100   43  103 1   
   101   44   45 1   
   102   44  104 1   
   103   44  105 1   
   104   45   46 2   
   105   45  106 1   
   106   46   47 1   
   107   46   48 1   
   108   47  107 1   
   109   47  108 1   
   110   47  109 1   
   111   48  110 1   
   112   48  111 1   
   113   48  112 1   
@<TRIPOS>SUBSTRUCTURE
     1 7MQ         1 TEMP              0 ****  ****    0 ROOT
