@<TRIPOS>MOLECULE
7MQ
  112   103     1     0     0
SMALL
bcc


@<TRIPOS>ATOM
      1 C1          1.8420    8.2070    6.3990 c1        1 7MQ      0.293000
      2 O1          1.8710    8.9540    5.4420 o         1 7MQ     -0.276000
      3 C2          1.0160    6.9630    6.3500 c1        1 7MQ     -0.112000
      4 C3M         0.1390    4.8040    7.4710 c3        1 7MQ     -0.196000
      5 C3          0.9220    6.0960    7.5380 c2        1 7MQ     -0.099000
      6 C4          1.6520    6.4630    8.7880 c2        1 7MQ      0.291000
      7 O4          1.5650    5.7560    9.7720 o         1 7MQ     -0.275000
      8 C5          2.5100    7.7570    8.8350 c2        1 7MQ     -0.113000
      9 C6          3.1970    8.0960   10.0020 c2        1 7MQ     -0.085000
     10 C7          3.9730    9.2550   10.0430 c1        1 7MQ     -0.117000
     11 C8          4.0630   10.0810    8.9110 c1        1 7MQ     -0.101500
     12 C9          3.3770    9.7440    7.7440 c1        1 7MQ     -0.101500
     13 C10         2.6000    8.5850    7.7000 c1        1 7MQ     -0.112000
     14 C11         0.2890    6.5830    5.0720 c3        1 7MQ     -0.107000
     15 C12         0.9660    7.2460    3.8900 c2        1 7MQ     -0.168000
     16 C13         0.4180    7.1530    2.6570 c1        1 7MQ     -0.104000
     17 C14         1.0940    7.8150    1.4770 c2        1 7MQ     -0.181857
     18 C15        -0.8290    6.3170    2.4450 c3        1 7MQ     -0.127000
     19 C16        -1.4310    6.6410    1.0900 c3        1 7MQ     -0.123000
     20 C17        -1.5550    5.3700    0.2750 c2        1 7MQ     -0.173000
     21 C18        -1.8530    5.4380   -1.0400 c1        1 7MQ     -0.114000
     22 C19        -2.0630    6.7830   -1.7000 c2        1 7MQ     -0.181857
     23 C20        -1.9770    4.1670   -1.8550 c3        1 7MQ     -0.122000
     24 C21        -0.7620    4.0190   -2.7460 c3        1 7MQ     -0.126000
     25 C22        -0.5630    2.5580   -3.0880 c2        1 7MQ     -0.171000
     26 C23         0.3530    2.2000   -4.0110 c1        1 7MQ     -0.114000
     27 C24         1.1800    3.2590   -4.7060 c2        1 7MQ     -0.181857
     28 C25         0.5530    0.7380   -4.3530 c3        1 7MQ     -0.122000
     29 C26         1.7750    0.2130   -3.6280 c3        1 7MQ     -0.126000
     30 C27         1.6660   -1.2900   -3.4780 c2        1 7MQ     -0.170000
     31 C28         2.5630   -1.9600   -2.7220 c1        1 7MQ     -0.115000
     32 C29         3.6760   -1.2090   -2.0250 c2        1 7MQ     -0.181857
     33 C30         2.4540   -3.4620   -2.5720 c3        1 7MQ     -0.121000
     34 C31         1.8720   -3.7930   -1.2160 c3        1 7MQ     -0.126000
     35 C32         1.1980   -5.1450   -1.2730 c2        1 7MQ     -0.170000
     36 C33         0.3470   -5.5150   -0.2970 c1        1 7MQ     -0.116000
     37 C34         0.0660   -4.5760    0.8580 c2        1 7MQ     -0.181857
     38 C35        -0.3270   -6.8670   -0.3530 c3        1 7MQ     -0.122000
     39 C36        -1.6270   -6.7510   -1.1190 c3        1 7MQ     -0.126000
     40 C37        -2.0500   -8.1180   -1.6050 c2        1 7MQ     -0.170000
     41 C38        -3.0070   -8.2330   -2.5470 c1        1 7MQ     -0.116000
     42 C39        -3.6590   -6.9910   -3.1180 c2        1 7MQ     -0.181857
     43 C40        -3.4300   -9.6010   -3.0330 c3        1 7MQ     -0.122000
     44 C41        -2.4570  -10.0850   -4.0840 c3        1 7MQ     -0.125000
     45 C42        -3.1340  -11.1150   -4.9630 c2        1 7MQ     -0.173000
     46 C43        -2.4680  -12.2250   -5.3360 c1        1 7MQ     -0.116000
     47 C44        -1.0430  -12.4420   -4.8780 c2        1 7MQ     -0.181857
     48 C45        -3.1460  -13.2550   -6.2150 c3        1 7MQ     -0.178000
     49 H3M1       -0.8180    5.0050    7.4010 hc        1 7MQ      0.102333
     50 H3M2        0.3050    4.2790    8.2820 hc        1 7MQ      0.102333
     51 H3M3        0.4230    4.2910    6.6860 hc        1 7MQ      0.102333
     52 H6          3.1350    7.5220   10.7890 ha        1 7MQ      0.160000
     53 H7          4.4530    9.4920   10.8590 ha        1 7MQ      0.142000
     54 H8          4.6060   10.8920    8.9410 ha        1 7MQ      0.151000
     55 H9          3.4400   10.3190    6.9580 ha        1 7MQ      0.151000
     56 H111        0.3140    5.6120    4.9590 hc        1 7MQ      0.115000
     57 H112       -0.6410    6.8820    5.1240 hc        1 7MQ      0.115000
     58 H12         1.8220    7.6990    4.0090 ha        1 7MQ      0.126000
     59 H141        2.0180    8.0390    1.7140 ha        1 7MQ      0.080857
     60 H142        0.6090    8.6330    1.2400 ha        1 7MQ      0.080857
     61 H143        1.0920    7.2010    0.7130 ha        1 7MQ      0.080857
     62 H151       -1.4790    6.5170    3.1470 hc        1 7MQ      0.088500
     63 H152       -0.5950    5.3670    2.4790 hc        1 7MQ      0.088500
     64 H161       -0.8530    7.2750    0.6200 hc        1 7MQ      0.088000
     65 H162       -2.3170    7.0380    1.2130 hc        1 7MQ      0.088000
     66 H17        -1.4200    4.5020    0.7000 ha        1 7MQ      0.125000
     67 H191       -2.8660    7.2050   -1.3310 ha        1 7MQ      0.080857
     68 H192       -1.2850    7.3550   -1.5300 ha        1 7MQ      0.080857
     69 H193       -2.1720    6.6590   -2.6660 ha        1 7MQ      0.080857
     70 H201       -2.0360    3.3990   -1.2530 hc        1 7MQ      0.084500
     71 H202       -2.7830    4.2120   -2.4070 hc        1 7MQ      0.084500
     72 H211       -0.8980    4.5300   -3.5690 hc        1 7MQ      0.089500
     73 H212        0.0280    4.3560   -2.2790 hc        1 7MQ      0.089500
     74 H22        -1.0960    1.8740   -2.6390 ha        1 7MQ      0.123000
     75 H241        1.8450    2.8270   -5.2830 ha        1 7MQ      0.080857
     76 H242        1.6370    3.8080   -4.0350 ha        1 7MQ      0.080857
     77 H243        0.5940    3.8260   -5.2490 ha        1 7MQ      0.080857
     78 H251        0.6800    0.6430   -5.3180 hc        1 7MQ      0.085500
     79 H252       -0.2350    0.2280   -4.0750 hc        1 7MQ      0.085500
     80 H261        2.5780    0.4320   -4.1420 hc        1 7MQ      0.090500
     81 H262        1.8320    0.6260   -2.7430 hc        1 7MQ      0.090500
     82 H27         0.9480   -1.7750   -3.9280 ha        1 7MQ      0.122000
     83 H291        4.1880   -1.8300   -1.4650 ha        1 7MQ      0.080857
     84 H292        4.2680   -0.8080   -2.6940 ha        1 7MQ      0.080857
     85 H293        3.2920   -0.5040   -1.4640 ha        1 7MQ      0.080857
     86 H301        3.3420   -3.8620   -2.6520 hc        1 7MQ      0.085000
     87 H302        1.8710   -3.8180   -3.2730 hc        1 7MQ      0.085000
     88 H311        2.5880   -3.8130   -0.5500 hc        1 7MQ      0.090500
     89 H312        1.2150   -3.1110   -0.9680 hc        1 7MQ      0.090500
     90 H32         1.3790   -5.7490   -2.0170 ha        1 7MQ      0.122000
     91 H341       -0.6800   -4.9270    1.3890 ha        1 7MQ      0.080857
     92 H342        0.8640   -4.5040    1.4220 ha        1 7MQ      0.080857
     93 H343       -0.1700   -3.6910    0.5090 ha        1 7MQ      0.080857
     94 H351       -0.5110   -7.1780    0.5550 hc        1 7MQ      0.085000
     95 H352        0.2610   -7.5060   -0.8040 hc        1 7MQ      0.085000
     96 H361       -2.3190   -6.3850   -0.5330 hc        1 7MQ      0.089500
     97 H362       -1.5010   -6.1570   -1.8860 hc        1 7MQ      0.089500
     98 H37        -1.6290   -8.9190   -1.2360 ha        1 7MQ      0.122000
     99 H391       -2.9700   -6.4040   -3.4930 ha        1 7MQ      0.080857
    100 H392       -4.1400   -6.5180   -2.4070 ha        1 7MQ      0.080857
    101 H393       -4.2880   -7.2490   -3.8250 ha        1 7MQ      0.080857
    102 H401       -4.3270   -9.5470   -3.4190 hc        1 7MQ      0.085000
    103 H402       -3.4360  -10.2270   -2.2810 hc        1 7MQ      0.085000
    104 H411       -2.1660   -9.3290   -4.6330 hc        1 7MQ      0.089500
    105 H412       -1.6800  -10.4900   -3.6480 hc        1 7MQ      0.089500
    106 H42        -4.0540  -10.9750   -5.2580 ha        1 7MQ      0.122000
    107 H441       -1.0160  -12.4730   -3.8980 ha        1 7MQ      0.080857
    108 H442       -0.4810  -11.7060   -5.1970 ha        1 7MQ      0.080857
    109 H443       -0.7080  -13.2890   -5.2410 ha        1 7MQ      0.080857
    110 H451       -3.0140  -14.1480   -5.8320 hc        1 7MQ      0.079333
    111 H452       -4.1050  -13.0600   -6.2670 hc        1 7MQ      0.079333
    112 H453       -2.7570  -13.2240   -7.1140 hc        1 7MQ      0.079333
@<TRIPOS>BOND
     1    1    2 1   
     2    1   13 1   
     3    3    5 1   
     4    3   14 1   
     5    4    5 1   
     6    4   49 1   
     7    4   50 1   
     8    4   51 1   
     9    5    6 1   
    10    6    7 1   
    11    6    8 1   
    12    8    9 1   
    13    8   13 1   
    14    9   10 1   
    15    9   52 1   
    16   10   53 1   
    17   11   12 1   
    18   11   54 1   
    19   12   55 1   
    20   14   15 1   
    21   14   56 1   
    22   14   57 1   
    23   15   16 1   
    24   15   58 1   
    25   16   18 1   
    26   17   59 1   
    27   17   60 1   
    28   17   61 1   
    29   18   19 1   
    30   18   62 1   
    31   18   63 1   
    32   19   20 1   
    33   19   64 1   
    34   19   65 1   
    35   20   21 1   
    36   20   66 1   
    37   21   23 1   
    38   22   67 1   
    39   22   68 1   
    40   22   69 1   
    41   23   24 1   
    42   23   70 1   
    43   23   71 1   
    44   24   25 1   
    45   24   72 1   
    46   24   73 1   
    47   25   26 1   
    48   25   74 1   
    49   26   28 1   
    50   27   75 1   
    51   27   76 1   
    52   27   77 1   
    53   28   29 1   
    54   28   78 1   
    55   28   79 1   
    56   29   30 1   
    57   29   80 1   
    58   29   81 1   
    59   30   31 1   
    60   30   82 1   
    61   31   33 1   
    62   32   83 1   
    63   32   84 1   
    64   32   85 1   
    65   33   34 1   
    66   33   86 1   
    67   33   87 1   
    68   34   35 1   
    69   34   88 1   
    70   34   89 1   
    71   35   36 1   
    72   35   90 1   
    73   36   38 1   
    74   37   91 1   
    75   37   92 1   
    76   37   93 1   
    77   38   39 1   
    78   38   94 1   
    79   38   95 1   
    80   39   40 1   
    81   39   96 1   
    82   39   97 1   
    83   40   41 1   
    84   40   98 1   
    85   41   43 1   
    86   42   99 1   
    87   42  100 1   
    88   42  101 1   
    89   43   44 1   
    90   43  102 1   
    91   43  103 1   
    92   44   45 1   
    93   44  104 1   
    94   44  105 1   
    95   45   46 1   
    96   45  106 1   
    97   46   48 1   
    98   47  107 1   
    99   47  108 1   
   100   47  109 1   
   101   48  110 1   
   102   48  111 1   
   103   48  112 1   
@<TRIPOS>SUBSTRUCTURE
     1 7MQ         1 TEMP              0 ****  ****    0 ROOT
