@<TRIPOS>MOLECULE
7MQ
  112   113     1     0     0
SMALL
bcc


@<TRIPOS>ATOM
      1 C1          0.3160    0.6750    0.6790 c         1 7MQ      0.574900
      2 O1         -0.4290    0.2740    1.5840 o         1 7MQ     -0.519100
      3 C2         -0.0660    0.5790   -0.7510 cc        1 7MQ     -0.126400
      4 C3M         0.2420    1.1490   -3.1480 c3        1 7MQ     -0.069900
      5 C3          0.6350    1.2080   -1.7190 cd        1 7MQ     -0.127400
      6 C4          1.8440    2.0120   -1.4080 c         1 7MQ      0.570900
      7 O4          2.3970    2.7130   -2.2660 o         1 7MQ     -0.515100
      8 C5          2.3670    1.9260   -0.0290 ca        1 7MQ     -0.133600
      9 C6          3.6060    2.4990    0.2770 ca        1 7MQ     -0.085000
     10 C7          4.1140    2.4210    1.5740 ca        1 7MQ     -0.117000
     11 C8          3.3860    1.7780    2.5720 ca        1 7MQ     -0.117000
     12 C9          2.1460    1.2100    2.2770 ca        1 7MQ     -0.086000
     13 C10         1.6330    1.2780    0.9780 ca        1 7MQ     -0.132600
     14 C11        -1.2820   -0.2390   -1.0430 c3        1 7MQ     -0.015000
     15 C12        -0.9310   -1.6450   -1.3700 c2        1 7MQ     -0.187200
     16 C13        -1.2720   -2.7150   -0.6350 c2        1 7MQ     -0.092400
     17 C14        -2.0340   -2.6240    0.6330 c3        1 7MQ     -0.072900
     18 C15        -0.9070   -4.0920   -1.0820 c3        1 7MQ     -0.044200
     19 C16         0.2580   -4.6470   -0.2830 c3        1 7MQ     -0.043200
     20 C17         0.6060   -6.0260   -0.6970 c2        1 7MQ     -0.175200
     21 C18         1.6950   -6.6780   -0.2570 c2        1 7MQ     -0.122400
     22 C19         2.6560   -6.0580    0.6870 c3        1 7MQ     -0.059900
     23 C20         1.9930   -8.0730   -0.6880 c3        1 7MQ     -0.039200
     24 C21         3.2240   -8.1340   -1.5740 c3        1 7MQ     -0.044200
     25 C22         3.5600   -9.5230   -1.9630 c2        1 7MQ     -0.174200
     26 C23         4.5090   -9.8310   -2.8620 c2        1 7MQ     -0.123400
     27 C24         5.3040   -8.7900   -3.5560 c3        1 7MQ     -0.058900
     28 C25         4.8230  -11.2470   -3.2060 c3        1 7MQ     -0.038200
     29 C26         4.4100  -11.5820   -4.6280 c3        1 7MQ     -0.044200
     30 C27         4.7690  -12.9710   -4.9980 c2        1 7MQ     -0.174200
     31 C28         4.3810  -13.5550   -6.1430 c2        1 7MQ     -0.124400
     32 C29         3.5410  -12.8510   -7.1410 c3        1 7MQ     -0.058900
     33 C30         4.7840  -14.9500   -6.4780 c3        1 7MQ     -0.038200
     34 C31         3.5970  -15.8970   -6.4550 c3        1 7MQ     -0.044200
     35 C32         3.9790  -17.2750   -6.8410 c2        1 7MQ     -0.174200
     36 C33         3.1470  -18.3250   -6.7540 c2        1 7MQ     -0.124400
     37 C34         1.7590  -18.1900   -6.2500 c3        1 7MQ     -0.058900
     38 C35         3.5730  -19.6910   -7.1720 c3        1 7MQ     -0.038200
     39 C36         3.6910  -20.6280   -5.9840 c3        1 7MQ     -0.043200
     40 C37         4.0610  -22.0020   -6.3950 c2        1 7MQ     -0.174200
     41 C38         4.3700  -22.9770   -5.5240 c2        1 7MQ     -0.123400
     42 C39         4.3740  -22.7520   -4.0590 c3        1 7MQ     -0.058900
     43 C40         4.7200  -24.3500   -5.9880 c3        1 7MQ     -0.038200
     44 C41         6.1810  -24.6730   -5.7310 c3        1 7MQ     -0.043200
     45 C42         6.5230  -26.0560   -6.1370 c2        1 7MQ     -0.177200
     46 C43         7.7760  -26.5400   -6.1250 c2        1 7MQ     -0.124400
     47 C44         8.0800  -27.9320   -6.5340 c3        1 7MQ     -0.057900
     48 C45         8.9370  -25.7180   -5.7080 c3        1 7MQ     -0.057900
     49 H3M1        1.0160    1.6250   -3.8000 hc        1 7MQ      0.060033
     50 H3M2        0.1040    0.0870   -3.4730 hc        1 7MQ      0.060033
     51 H3M3       -0.7260    1.6900   -3.3000 hc        1 7MQ      0.060033
     52 H6          4.1710    3.0130   -0.5190 ha        1 7MQ      0.160000
     53 H7          5.0910    2.8720    1.8060 ha        1 7MQ      0.142000
     54 H8          3.7840    1.7170    3.5960 ha        1 7MQ      0.142000
     55 H9          1.5570    0.7060    3.0610 ha        1 7MQ      0.159000
     56 H111       -1.8340    0.2060   -1.9180 hc        1 7MQ      0.068700
     57 H112       -1.9760   -0.1950   -0.1570 hc        1 7MQ      0.068700
     58 H12        -0.3550   -1.7710   -2.3020 ha        1 7MQ      0.120000
     59 H141       -2.0220   -3.5970    1.1830 hc        1 7MQ      0.050367
     60 H142       -3.1000   -2.3540    0.4230 hc        1 7MQ      0.050367
     61 H143       -1.6000   -1.8360    1.3020 hc        1 7MQ      0.050367
     62 H151       -0.6390   -4.0920   -2.1720 hc        1 7MQ      0.047700
     63 H152       -1.7990   -4.7650   -0.9600 hc        1 7MQ      0.047700
     64 H161        1.1520   -3.9760   -0.4090 hc        1 7MQ      0.052200
     65 H162        0.0000   -4.6410    0.8120 hc        1 7MQ      0.052200
     66 H17        -0.0900   -6.5120   -1.4000 ha        1 7MQ      0.123000
     67 H191        3.3810   -6.8100    1.0850 hc        1 7MQ      0.041700
     68 H192        3.2350   -5.2500    0.1710 hc        1 7MQ      0.041700
     69 H193        2.1150   -5.5960    1.5510 hc        1 7MQ      0.041700
     70 H201        1.1180   -8.5070   -1.2430 hc        1 7MQ      0.046200
     71 H202        2.1560   -8.7100    0.2230 hc        1 7MQ      0.046200
     72 H211        3.0540   -7.5130   -2.4960 hc        1 7MQ      0.050200
     73 H212        4.0980   -7.6760   -1.0320 hc        1 7MQ      0.050200
     74 H22         2.9830  -10.3190   -1.4640 ha        1 7MQ      0.123000
     75 H241        4.6600   -8.2370   -4.2870 hc        1 7MQ      0.041367
     76 H242        6.1640   -9.2360   -4.1130 hc        1 7MQ      0.041367
     77 H243        5.7040   -8.0470   -2.8210 hc        1 7MQ      0.041367
     78 H251        4.3040  -11.9460   -2.4980 hc        1 7MQ      0.046200
     79 H252        5.9280  -11.4150   -3.0880 hc        1 7MQ      0.046200
     80 H261        3.3010  -11.4340   -4.7420 hc        1 7MQ      0.050200
     81 H262        4.9060  -10.8650   -5.3400 hc        1 7MQ      0.050200
     82 H27         5.3920  -13.5190   -4.2730 ha        1 7MQ      0.123000
     83 H291        2.5020  -12.7170   -6.7440 hc        1 7MQ      0.041367
     84 H292        3.4800  -13.4220   -8.1000 hc        1 7MQ      0.041367
     85 H293        3.9590  -11.8360   -7.3590 hc        1 7MQ      0.041367
     86 H301        5.5620  -15.3170   -5.7560 hc        1 7MQ      0.046200
     87 H302        5.2500  -14.9600   -7.5010 hc        1 7MQ      0.046200
     88 H311        3.1420  -15.9030   -5.4270 hc        1 7MQ      0.050200
     89 H312        2.8040  -15.5190   -7.1570 hc        1 7MQ      0.050200
     90 H32         5.0070  -17.4060   -7.2180 ha        1 7MQ      0.123000
     91 H341        1.1670  -19.1210   -6.4290 hc        1 7MQ      0.041367
     92 H342        1.2400  -17.3370   -6.7550 hc        1 7MQ      0.041367
     93 H343        1.7680  -17.9850   -5.1490 hc        1 7MQ      0.041367
     94 H351        2.8200  -20.1020   -7.8990 hc        1 7MQ      0.045700
     95 H352        4.5590  -19.6470   -7.7060 hc        1 7MQ      0.045700
     96 H361        4.4580  -20.2280   -5.2650 hc        1 7MQ      0.050200
     97 H362        2.7120  -20.6550   -5.4290 hc        1 7MQ      0.050200
     98 H37         4.0690  -22.1980   -7.4800 ha        1 7MQ      0.123000
     99 H391        5.2340  -22.0930   -3.7730 hc        1 7MQ      0.041367
    100 H392        3.4300  -22.2440   -3.7380 hc        1 7MQ      0.041367
    101 H393        4.4670  -23.7150   -3.4990 hc        1 7MQ      0.041367
    102 H401        4.5050  -24.4600   -7.0850 hc        1 7MQ      0.045700
    103 H402        4.0720  -25.0930   -5.4480 hc        1 7MQ      0.045700
    104 H411        6.4080  -24.5360   -4.6380 hc        1 7MQ      0.049700
    105 H412        6.8300  -23.9430   -6.2890 hc        1 7MQ      0.049700
    106 H42         5.6810  -26.6910   -6.4560 ha        1 7MQ      0.122000
    107 H441        8.5330  -28.4930   -5.6780 hc        1 7MQ      0.040533
    108 H442        8.8140  -27.9320   -7.3780 hc        1 7MQ      0.040533
    109 H443        7.1610  -28.4760   -6.8650 hc        1 7MQ      0.040533
    110 H451        8.7470  -25.2500   -4.7090 hc        1 7MQ      0.040533
    111 H452        9.8670  -26.3320   -5.6400 hc        1 7MQ      0.040533
    112 H453        9.1100  -24.8930   -6.4460 hc        1 7MQ      0.040533
@<TRIPOS>BOND
     1    1    2 2   
     2    1    3 1   
     3    1   13 1   
     4    3    5 2   
     5    3   14 1   
     6    4    5 1   
     7    4   49 1   
     8    4   50 1   
     9    4   51 1   
    10    5    6 1   
    11    6    7 2   
    12    6    8 1   
    13    8    9 ar  
    14    8   13 ar  
    15    9   10 ar  
    16    9   52 1   
    17   10   11 ar  
    18   10   53 1   
    19   11   12 ar  
    20   11   54 1   
    21   12   13 ar  
    22   12   55 1   
    23   14   15 1   
    24   14   56 1   
    25   14   57 1   
    26   15   16 2   
    27   15   58 1   
    28   16   17 1   
    29   16   18 1   
    30   17   59 1   
    31   17   60 1   
    32   17   61 1   
    33   18   19 1   
    34   18   62 1   
    35   18   63 1   
    36   19   20 1   
    37   19   64 1   
    38   19   65 1   
    39   20   21 2   
    40   20   66 1   
    41   21   22 1   
    42   21   23 1   
    43   22   67 1   
    44   22   68 1   
    45   22   69 1   
    46   23   24 1   
    47   23   70 1   
    48   23   71 1   
    49   24   25 1   
    50   24   72 1   
    51   24   73 1   
    52   25   26 2   
    53   25   74 1   
    54   26   27 1   
    55   26   28 1   
    56   27   75 1   
    57   27   76 1   
    58   27   77 1   
    59   28   29 1   
    60   28   78 1   
    61   28   79 1   
    62   29   30 1   
    63   29   80 1   
    64   29   81 1   
    65   30   31 2   
    66   30   82 1   
    67   31   32 1   
    68   31   33 1   
    69   32   83 1   
    70   32   84 1   
    71   32   85 1   
    72   33   34 1   
    73   33   86 1   
    74   33   87 1   
    75   34   35 1   
    76   34   88 1   
    77   34   89 1   
    78   35   36 2   
    79   35   90 1   
    80   36   37 1   
    81   36   38 1   
    82   37   91 1   
    83   37   92 1   
    84   37   93 1   
    85   38   39 1   
    86   38   94 1   
    87   38   95 1   
    88   39   40 1   
    89   39   96 1   
    90   39   97 1   
    91   40   41 2   
    92   40   98 1   
    93   41   42 1   
    94   41   43 1   
    95   42   99 1   
    96   42  100 1   
    97   42  101 1   
    98   43   44 1   
    99   43  102 1   
   100   43  103 1   
   101   44   45 1   
   102   44  104 1   
   103   44  105 1   
   104   45   46 2   
   105   45  106 1   
   106   46   47 1   
   107   46   48 1   
   108   47  107 1   
   109   47  108 1   
   110   47  109 1   
   111   48  110 1   
   112   48  111 1   
   113   48  112 1   
@<TRIPOS>SUBSTRUCTURE
     1 7MQ         1 TEMP              0 ****  ****    0 ROOT
