@<TRIPOS>MOLECULE
7MR
   42    37     1     0     0
SMALL
bcc


@<TRIPOS>ATOM
      1 CAI         1.4260    2.0960    4.3390 c1        1 7MR     -0.122000
      2 CAH         0.4850    2.4000    5.3180 c1        1 7MR     -0.126000
      3 CAG        -0.1890    3.6150    5.2810 c1        1 7MR     -0.126000
      4 CAR         0.0770    4.5270    4.2660 c1        1 7MR     -0.126000
      5 CAS         1.0160    4.2250    3.2900 c1        1 7MR     -0.126000
      6 CAT         1.6920    3.0050    3.3270 c1        1 7MR      0.027000
      7 OAU         2.7080    2.7370    2.3900 os        1 7MR     -0.151000
      8 CAV         2.1950    1.8940    1.3620 c2        1 7MR      0.156000
      9 CAJ         2.4980    0.5400    1.3600 c2        1 7MR     -0.184000
     10 CAK         2.0050   -0.2830    0.3490 c1        1 7MR      0.025000
     11 CAW         1.4000    2.4290    0.3560 c1        1 7MR     -0.227000
     12 CAX         0.9060    1.6060   -0.6540 c1        1 7MR      0.024000
     13 CAL         1.2100    0.2510   -0.6560 c1        1 7MR     -0.900000
     14 SAM         0.5140   -0.8200   -1.9110 s4        1 7MR      2.081800
     15 OAY         0.5820   -0.2140   -3.2080 o         1 7MR     -0.548900
     16 OAC         1.3220   -1.9850   -2.1050 o         1 7MR     -0.548900
     17 CAN        -1.1940   -1.2670   -1.4810 c2        1 7MR     -0.899000
     18 CAO        -1.7740   -2.2360   -2.5720 c3        1 7MR      0.052000
     19 CAP        -3.2330   -2.5760   -2.2320 c3        1 7MR      0.408000
     20 FBA        -3.3100   -2.9980   -0.9630 f         1 7MR     -0.158000
     21 FAF        -3.6690   -3.5440   -3.0510 f         1 7MR     -0.158000
     22 FAQ        -3.9970   -1.4810   -2.3880 f         1 7MR     -0.158000
     23 NAZ        -1.7190   -1.6100   -3.8330 n3        1 7MR     -0.364000
     24 CAE        -0.9580   -3.5040   -2.6040 c2        1 7MR      0.253000
     25 OAB        -0.2970   -3.8220   -1.6410 o         1 7MR     -0.325000
     26 NAD        -1.0610   -4.3940   -3.7300 n         1 7MR     -0.173000
     27 OAA        -0.0030   -5.2080   -4.0620 oh        1 7MR     -0.229000
     28 HAI         1.8980    1.2470    4.3650 ha        1 7MR      0.153000
     29 HAH         0.2970    1.7560    6.0340 ha        1 7MR      0.142750
     30 HAG        -0.8530    3.8290    5.9700 ha        1 7MR      0.142750
     31 HAR        -0.3970    5.3810    4.2400 ha        1 7MR      0.142750
     32 HAS         1.2010    4.8610    2.5820 ha        1 7MR      0.142750
     33 HAJ         3.0530    0.1660    2.0630 ha        1 7MR      0.165000
     34 HAK         2.2190   -1.2370    0.3480 ha        1 7MR      0.174000
     35 HAW         1.1870    3.3790    0.3570 ha        1 7MR      0.160000
     36 HAX         0.3430    1.9840   -1.3660 ha        1 7MR      0.164000
     37 HAN1       -1.2050   -1.7140   -0.6070 ha        1 7MR      0.179000
     38 HAN2       -1.7450   -0.4530   -1.4390 ha        1 7MR      0.179000
     39 HAZ1       -1.6770   -0.7020   -3.7220 hn        1 7MR      0.199000
     40 HAZ2       -0.9750   -1.8970   -4.2840 hn        1 7MR      0.199000
     41 HNAD       -1.8330   -4.4190   -4.2270 hn        1 7MR      0.246000
     42 HOAA       -0.1440   -5.5640   -4.8630 ho        1 7MR      0.235000
@<TRIPOS>BOND
     1    1    6 1   
     2    1   28 1   
     3    2    3 1   
     4    2   29 1   
     5    3   30 1   
     6    4    5 1   
     7    4   31 1   
     8    5   32 1   
     9    6    7 1   
    10    7    8 1   
    11    8    9 1   
    12    8   11 1   
    13    9   10 1   
    14    9   33 1   
    15   10   34 1   
    16   11   35 1   
    17   12   13 1   
    18   12   36 1   
    19   13   14 1   
    20   14   15 1   
    21   14   16 1   
    22   17   18 1   
    23   17   37 1   
    24   17   38 1   
    25   18   19 1   
    26   18   23 1   
    27   18   24 1   
    28   19   20 1   
    29   19   21 1   
    30   19   22 1   
    31   23   39 1   
    32   23   40 1   
    33   24   25 1   
    34   24   26 1   
    35   26   27 1   
    36   26   41 1   
    37   27   42 1   
@<TRIPOS>SUBSTRUCTURE
     1 7MR         1 TEMP              0 ****  ****    0 ROOT
