@<TRIPOS>MOLECULE
7MR
   44    45     1     0     0
SMALL
bcc


@<TRIPOS>ATOM
      1 CAI         1.0140    0.2860    0.3240 ca        1 7MR     -0.116000
      2 CAH         2.1220    0.0670    1.1430 ca        1 7MR     -0.110500
      3 CAG         1.9490   -0.3340    2.4700 ca        1 7MR     -0.093000
      4 CAR         0.6670   -0.5170    2.9940 ca        1 7MR     -0.110500
      5 CAS        -0.4560   -0.3040    2.1960 ca        1 7MR     -0.116000
      6 CAT        -0.2590    0.0940    0.8700 ca        1 7MR      0.011100
      7 OAU        -1.3750    0.4830    0.0960 os        1 7MR     -0.185200
      8 CAV        -2.0730   -0.4800   -0.5400 ca        1 7MR      0.298100
      9 CAJ        -1.7570   -1.8610   -0.5220 ca        1 7MR     -0.202500
     10 CAK        -2.5480   -2.7470   -1.2120 ca        1 7MR      0.049500
     11 CAW        -3.2080   -0.0240   -1.2730 ca        1 7MR     -0.202500
     12 CAX        -3.9800   -0.9320   -1.9480 ca        1 7MR      0.049500
     13 CAL        -3.6890   -2.3290   -1.9550 ca        1 7MR     -0.631500
     14 SAM        -4.6250   -3.3560   -2.6550 sy        1 7MR      1.487300
     15 OAY        -4.4830   -4.7120   -2.3220 o         1 7MR     -0.698800
     16 OAC        -5.9440   -2.9470   -2.9480 o         1 7MR     -0.698800
     17 CAN        -4.0230   -3.4320   -4.3880 c3        1 7MR     -0.334600
     18 CAO        -4.6400   -4.5060   -5.2620 c3        1 7MR      0.083200
     19 CAP        -4.1250   -4.2740   -6.7870 c3        1 7MR      0.636900
     20 FBA        -4.5160   -3.0550   -7.2550 f         1 7MR     -0.177633
     21 FAF        -4.6220   -5.2160   -7.6380 f         1 7MR     -0.177633
     22 FAQ        -2.7690   -4.3350   -6.8610 f         1 7MR     -0.177633
     23 NAZ        -4.1970   -5.8840   -4.8320 n4        1 7MR     -0.849600
     24 CAE        -6.1850   -4.4580   -5.2680 c         1 7MR      0.506100
     25 OAB        -6.9060   -5.4280   -5.0970 o         1 7MR     -0.350100
     26 NAD        -6.8630   -3.1350   -5.5180 n4        1 7MR     -0.428300
     27 OAA        -8.0420   -3.3000   -6.1570 oh        1 7MR     -0.327300
     28 HAI         1.1350    0.6270   -0.7150 ha        1 7MR      0.155000
     29 HAH         3.1360    0.2240    0.7410 ha        1 7MR      0.162500
     30 HAG         2.8310   -0.4970    3.1110 ha        1 7MR      0.164000
     31 HAR         0.5400   -0.8200    4.0460 ha        1 7MR      0.162500
     32 HAS        -1.4710   -0.4200    2.6040 ha        1 7MR      0.155000
     33 HAJ        -0.8830   -2.2080    0.0580 ha        1 7MR      0.196000
     34 HAK        -2.3090   -3.8270   -1.1750 ha        1 7MR      0.154500
     35 HAW        -3.4470    1.0540   -1.2680 ha        1 7MR      0.196000
     36 HAX        -4.8760   -0.5790   -2.4920 ha        1 7MR      0.154500
     37 HAN1       -2.9050   -3.5520   -4.3700 h1        1 7MR      0.145700
     38 HAN2       -4.1910   -2.4310   -4.8650 h1        1 7MR      0.145700
     39 HAZ1       -4.6660   -6.6050   -5.3990 hn        1 7MR      0.506133
     40 HAZ2       -3.1760   -5.9580   -4.9560 hn        1 7MR      0.506133
     41 HNAD       -6.9950   -2.6370   -4.5930 hn        1 7MR      0.529300
     42 HOAA       -8.6710   -3.7950   -5.5740 ho        1 7MR      0.500000
     43 HAZ3       -4.4230   -6.0370   -3.8220 hn        1 7MR      0.506133
     44 HAD2       -6.2900   -2.5370   -6.1590 hn        1 7MR      0.529300
@<TRIPOS>BOND
     1    1    2 ar  
     2    1    6 ar  
     3    1   28 1   
     4    2    3 ar  
     5    2   29 1   
     6    3    4 ar  
     7    3   30 1   
     8    4    5 ar  
     9    4   31 1   
    10    5    6 ar  
    11    5   32 1   
    12    6    7 1   
    13    7    8 1   
    14    8    9 ar  
    15    8   11 ar  
    16    9   10 ar  
    17    9   33 1   
    18   10   13 ar  
    19   10   34 1   
    20   11   12 ar  
    21   11   35 1   
    22   12   13 ar  
    23   12   36 1   
    24   13   14 1   
    25   14   15 2   
    26   14   16 2   
    27   14   17 1   
    28   17   18 1   
    29   17   37 1   
    30   17   38 1   
    31   18   19 1   
    32   18   23 1   
    33   18   24 1   
    34   19   20 1   
    35   19   21 1   
    36   19   22 1   
    37   23   39 1   
    38   23   40 1   
    39   23   43 1   
    40   24   25 2   
    41   24   26 1   
    42   26   27 1   
    43   26   41 1   
    44   26   44 1   
    45   27   42 1   
@<TRIPOS>SUBSTRUCTURE
     1 7MR         1 TEMP              0 ****  ****    0 ROOT
