@<TRIPOS>MOLECULE
7MR
   44    45     1     0     0
SMALL
bcc


@<TRIPOS>ATOM
      1 CAI         1.0020    0.3110    0.3240 ca        1 7MR     -0.116000
      2 CAH         2.0950    0.0990    1.1640 ca        1 7MR     -0.110500
      3 CAG         1.8990   -0.2760    2.4950 ca        1 7MR     -0.093000
      4 CAR         0.6080   -0.4400    3.0030 ca        1 7MR     -0.110500
      5 CAS        -0.5020   -0.2330    2.1840 ca        1 7MR     -0.116000
      6 CAT        -0.2810    0.1380    0.8540 ca        1 7MR      0.011100
      7 OAU        -1.3820    0.5210    0.0560 os        1 7MR     -0.185200
      8 CAV        -2.0800   -0.4490   -0.5700 ca        1 7MR      0.298100
      9 CAJ        -1.7790   -1.8330   -0.5170 ca        1 7MR     -0.202500
     10 CAK        -2.5680   -2.7250   -1.1980 ca        1 7MR      0.049500
     11 CAW        -3.2000    0.0020   -1.3300 ca        1 7MR     -0.202500
     12 CAX        -3.9710   -0.9130   -1.9960 ca        1 7MR      0.049500
     13 CAL        -3.6950   -2.3120   -1.9680 ca        1 7MR     -0.631500
     14 SAM        -4.6300   -3.3450   -2.6580 sy        1 7MR      1.487300
     15 OAY        -4.5080   -4.6950   -2.2940 o         1 7MR     -0.698800
     16 OAC        -5.9400   -2.9290   -2.9800 o         1 7MR     -0.698800
     17 CAN        -4.0040   -3.4660   -4.3800 c3        1 7MR     -0.334600
     18 CAO        -4.6190   -4.5530   -5.2390 c3        1 7MR      0.083200
     19 CAP        -4.0800   -4.3600   -6.7610 c3        1 7MR      0.636900
     20 FBA        -4.4510   -3.1480   -7.2620 f         1 7MR     -0.177633
     21 FAF        -4.5740   -5.3160   -7.5980 f         1 7MR     -0.177633
     22 FAQ        -2.7230   -4.4370   -6.8140 f         1 7MR     -0.177633
     23 NAZ        -4.1970   -5.9260   -4.7720 nz        1 7MR     -0.849600
     24 CAE        -6.1640   -4.4890   -5.2690 c         1 7MR      0.506100
     25 OAB        -6.8970   -5.4480   -5.0880 o         1 7MR     -0.350100
     26 NAD        -6.8240   -3.1650   -5.5590 ny        1 7MR     -0.428300
     27 OAA        -7.9950   -3.3320   -6.2120 oh        1 7MR     -0.327300
     28 HAI         1.1410    0.6310   -0.7190 ha        1 7MR      0.155000
     29 HAH         3.1160    0.2410    0.7750 ha        1 7MR      0.162500
     30 HAG         2.7690   -0.4330    3.1530 ha        1 7MR      0.164000
     31 HAR         0.4620   -0.7230    4.0580 ha        1 7MR      0.162500
     32 HAS        -1.5230   -0.3340    2.5780 ha        1 7MR      0.155000
     33 HAJ        -0.9170   -2.1750    0.0830 ha        1 7MR      0.196000
     34 HAK        -2.3410   -3.8070   -1.1350 ha        1 7MR      0.154500
     35 HAW        -3.4270    1.0820   -1.3520 ha        1 7MR      0.196000
     36 HAX        -4.8550   -0.5630   -2.5600 ha        1 7MR      0.154500
     37 HAN1       -2.8880   -3.5970   -4.3430 h1        1 7MR      0.145700
     38 HAN2       -4.1550   -2.4740   -4.8810 h1        1 7MR      0.145700
     39 HAZ1       -3.1760   -6.0120   -4.8790 hn        1 7MR      0.506133
     40 HAZ2       -4.6660   -6.6540   -5.3300 hn        1 7MR      0.506133
     41 HNAD       -6.2350   -2.5880   -6.2030 hn        1 7MR      0.529300
     42 HOAA       -8.6380   -3.8080   -5.6280 ho        1 7MR      0.500000
     43 HAZ3       -4.4400   -6.0530   -3.7630 hn        1 7MR      0.506133
     44 HAD2       -6.9650   -2.6460   -4.6470 hn        1 7MR      0.529300
@<TRIPOS>BOND
     1    1    2 ar  
     2    1    6 ar  
     3    1   28 1   
     4    2    3 ar  
     5    2   29 1   
     6    3    4 ar  
     7    3   30 1   
     8    4    5 ar  
     9    4   31 1   
    10    5    6 ar  
    11    5   32 1   
    12    6    7 1   
    13    7    8 1   
    14    8    9 ar  
    15    8   11 ar  
    16    9   10 ar  
    17    9   33 1   
    18   10   13 ar  
    19   10   34 1   
    20   11   12 ar  
    21   11   35 1   
    22   12   13 ar  
    23   12   36 1   
    24   13   14 1   
    25   14   15 2   
    26   14   16 2   
    27   14   17 1   
    28   17   18 1   
    29   17   37 1   
    30   17   38 1   
    31   18   19 1   
    32   18   23 1   
    33   18   24 1   
    34   19   20 1   
    35   19   21 1   
    36   19   22 1   
    37   23   39 1   
    38   23   40 1   
    39   23   43 1   
    40   24   25 2   
    41   24   26 1   
    42   26   27 1   
    43   26   41 1   
    44   26   44 1   
    45   27   42 1   
@<TRIPOS>SUBSTRUCTURE
     1 7MR         1 TEMP              0 ****  ****    0 ROOT
