@<TRIPOS>MOLECULE
7MR
   42    43     1     0     0
SMALL
bcc


@<TRIPOS>ATOM
      1 CAI         4.1250    0.3820   -7.1080 ca        1 7MR     -0.130500
      2 CAH         3.9710    0.9720   -8.3610 ca        1 7MR     -0.118500
      3 CAG         3.8120    0.1790   -9.4990 ca        1 7MR     -0.126000
      4 CAR         3.8050   -1.2120   -9.3920 ca        1 7MR     -0.118500
      5 CAS         3.9530   -1.8240   -8.1480 ca        1 7MR     -0.130500
      6 CAT         4.1160   -1.0150   -7.0170 ca        1 7MR      0.070100
      7 OAU         4.4100   -1.6530   -5.8060 os        1 7MR     -0.242200
      8 CAV         3.4630   -1.5670   -4.8070 ca        1 7MR      0.199100
      9 CAJ         2.2050   -0.9650   -4.9550 ca        1 7MR     -0.204500
     10 CAK         1.3320   -0.9540   -3.8750 ca        1 7MR      0.023500
     11 CAW         3.8400   -2.1580   -3.5840 ca        1 7MR     -0.204500
     12 CAX         2.9480   -2.1320   -2.5260 ca        1 7MR      0.023500
     13 CAL         1.6830   -1.5280   -2.6440 ca        1 7MR     -0.454500
     14 SAM         0.6190   -1.5430   -1.3730 sy        1 7MR      1.402300
     15 OAY        -0.7020   -1.6470   -1.8280 o         1 7MR     -0.650800
     16 OAC         1.0500   -2.4420   -0.3890 o         1 7MR     -0.650800
     17 CAN         0.8680    0.0620   -0.7450 c3        1 7MR     -0.310600
     18 CAO        -0.3300    1.0130   -0.6660 c3        1 7MR      0.154200
     19 CAP         0.2400    2.4020   -0.1050 c3        1 7MR      0.622900
     20 FBA         0.7820    2.2940    1.1510 f         1 7MR     -0.228633
     21 FAF        -0.7050    3.3860   -0.0000 f         1 7MR     -0.228633
     22 FAQ         1.2370    2.9430   -0.8680 f         1 7MR     -0.228633
     23 NAZ        -0.9050    1.2500   -1.9790 n3        1 7MR     -0.898800
     24 CAE        -1.3910    0.5400    0.3740 c         1 7MR      0.540100
     25 OAB        -2.5990    0.6080    0.1080 o         1 7MR     -0.523100
     26 NAD        -0.9280   -0.0980    1.5580 n         1 7MR     -0.338400
     27 OAA        -1.8540   -0.2380    2.5080 oh        1 7MR     -0.426100
     28 HAI         4.2570    0.9940   -6.2040 ha        1 7MR      0.151500
     29 HAH         3.9790    2.0690   -8.4510 ha        1 7MR      0.141500
     30 HAG         3.6920    0.6530  -10.4840 ha        1 7MR      0.140000
     31 HAR         3.6810   -1.8330  -10.2920 ha        1 7MR      0.141500
     32 HAS         3.9560   -2.9190   -8.0480 ha        1 7MR      0.151500
     33 HAJ         1.9150   -0.5100   -5.9140 ha        1 7MR      0.162000
     34 HAK         0.3350   -0.4900   -3.9880 ha        1 7MR      0.160500
     35 HAW         4.8280   -2.6320   -3.4910 ha        1 7MR      0.162000
     36 HAX         3.2270   -2.6060   -1.5660 ha        1 7MR      0.160500
     37 HAN1        1.6500    0.5930   -1.3610 h1        1 7MR      0.132200
     38 HAN2        1.3290   -0.0210    0.2780 h1        1 7MR      0.132200
     39 HAZ1       -1.5950    1.9770   -1.9200 hn        1 7MR      0.393800
     40 HAZ2       -1.3430    0.4090   -2.3190 hn        1 7MR      0.393800
     41 HNAD       -0.1270    0.3700    1.9740 hn        1 7MR      0.312500
     42 HOAA       -2.4160   -0.9890    2.2250 ho        1 7MR      0.439000
@<TRIPOS>BOND
     1    1    2 ar  
     2    1    6 ar  
     3    1   28 1   
     4    2    3 ar  
     5    2   29 1   
     6    3    4 ar  
     7    3   30 1   
     8    4    5 ar  
     9    4   31 1   
    10    5    6 ar  
    11    5   32 1   
    12    6    7 1   
    13    7    8 1   
    14    8    9 ar  
    15    8   11 ar  
    16    9   10 ar  
    17    9   33 1   
    18   10   13 ar  
    19   10   34 1   
    20   11   12 ar  
    21   11   35 1   
    22   12   13 ar  
    23   12   36 1   
    24   13   14 1   
    25   14   15 2   
    26   14   16 2   
    27   14   17 1   
    28   17   18 1   
    29   17   37 1   
    30   17   38 1   
    31   18   19 1   
    32   18   23 1   
    33   18   24 1   
    34   19   20 1   
    35   19   21 1   
    36   19   22 1   
    37   23   39 1   
    38   23   40 1   
    39   24   25 2   
    40   24   26 1   
    41   26   27 1   
    42   26   41 1   
    43   27   42 1   
@<TRIPOS>SUBSTRUCTURE
     1 7MR         1 TEMP              0 ****  ****    0 ROOT
