@<TRIPOS>MOLECULE
7MR
   44    45     1     0     0
SMALL
bcc


@<TRIPOS>ATOM
      1 CAI         0.9880    0.3140    0.3440 ca        1 7MR     -0.116000
      2 CAH         2.0700    0.1030    1.1990 ca        1 7MR     -0.110500
      3 CAG         1.8560   -0.2590    2.5300 ca        1 7MR     -0.093000
      4 CAR         0.5580   -0.4120    3.0240 ca        1 7MR     -0.110500
      5 CAS        -0.5410   -0.2060    2.1900 ca        1 7MR     -0.116000
      6 CAT        -0.3020    0.1530    0.8590 ca        1 7MR      0.011100
      7 OAU        -1.3910    0.5350    0.0450 os        1 7MR     -0.185200
      8 CAV        -2.0880   -0.4360   -0.5790 ca        1 7MR      0.298100
      9 CAJ        -1.7970   -1.8220   -0.5090 ca        1 7MR     -0.202500
     10 CAK        -2.5840   -2.7160   -1.1900 ca        1 7MR      0.049500
     11 CAW        -3.1960    0.0140   -1.3570 ca        1 7MR     -0.202500
     12 CAX        -3.9650   -0.9020   -2.0220 ca        1 7MR      0.049500
     13 CAL        -3.6990   -2.3030   -1.9770 ca        1 7MR     -0.631500
     14 SAM        -4.6330   -3.3370   -2.6680 sy        1 7MR      1.487300
     15 OAY        -4.5240   -4.6840   -2.2880 o         1 7MR     -0.698800
     16 OAC        -5.9370   -2.9160   -3.0090 o         1 7MR     -0.698800
     17 CAN        -3.9880   -3.4800   -4.3810 c3        1 7MR     -0.334600
     18 CAO        -4.6000   -4.5710   -5.2360 c3        1 7MR      0.083200
     19 CAP        -4.0420   -4.3980   -6.7540 c3        1 7MR      0.636900
     20 FBA        -4.3980   -3.1880   -7.2710 f         1 7MR     -0.177633
     21 FAF        -4.5330   -5.3580   -7.5870 f         1 7MR     -0.177633
     22 FAQ        -2.6850   -4.4840   -6.7900 f         1 7MR     -0.177633
     23 NAZ        -4.1930   -5.9420   -4.7510 n4        1 7MR     -0.849600
     24 CAE        -6.1440   -4.4970   -5.2850 c         1 7MR      0.506100
     25 OAB        -6.8860   -5.4490   -5.1030 o         1 7MR     -0.350100
     26 NAD        -6.7910   -3.1720   -5.5960 n4        1 7MR     -0.428300
     27 OAA        -7.9560   -3.3370   -6.2610 oh        1 7MR     -0.327300
     28 HAI         1.1420    0.6250   -0.7000 ha        1 7MR      0.155000
     29 HAH         3.0960    0.2360    0.8210 ha        1 7MR      0.162500
     30 HAG         2.7180   -0.4160    3.2000 ha        1 7MR      0.164000
     31 HAR         0.3980   -0.6840    4.0800 ha        1 7MR      0.162500
     32 HAS        -1.5670   -0.2980    2.5730 ha        1 7MR      0.155000
     33 HAJ        -0.9450   -2.1640    0.1050 ha        1 7MR      0.196000
     34 HAK        -2.3650   -3.7980   -1.1130 ha        1 7MR      0.154500
     35 HAW        -3.4160    1.0950   -1.3920 ha        1 7MR      0.196000
     36 HAX        -4.8410   -0.5520   -2.6000 ha        1 7MR      0.154500
     37 HAN1       -4.1260   -2.4920   -4.8940 h1        1 7MR      0.145700
     38 HAN2       -2.8730   -3.6170   -4.3290 h1        1 7MR      0.145700
     39 HAZ1       -4.4480   -6.0570   -3.7430 hn        1 7MR      0.506133
     40 HAZ2       -3.1710   -6.0360   -4.8440 hn        1 7MR      0.506133
     41 HNAD       -6.1910   -2.6050   -6.2390 hn        1 7MR      0.529300
     42 HOAA       -8.6090   -3.8030   -5.6800 ho        1 7MR      0.500000
     43 HAZ3       -4.6600   -6.6730   -5.3060 hn        1 7MR      0.506133
     44 HAD2       -6.9390   -2.6420   -4.6910 hn        1 7MR      0.529300
@<TRIPOS>BOND
     1    1    2 ar  
     2    1    6 ar  
     3    1   28 1   
     4    2    3 ar  
     5    2   29 1   
     6    3    4 ar  
     7    3   30 1   
     8    4    5 ar  
     9    4   31 1   
    10    5    6 ar  
    11    5   32 1   
    12    6    7 1   
    13    7    8 1   
    14    8    9 ar  
    15    8   11 ar  
    16    9   10 ar  
    17    9   33 1   
    18   10   13 ar  
    19   10   34 1   
    20   11   12 ar  
    21   11   35 1   
    22   12   13 ar  
    23   12   36 1   
    24   13   14 1   
    25   14   15 2   
    26   14   16 2   
    27   14   17 1   
    28   17   18 1   
    29   17   37 1   
    30   17   38 1   
    31   18   19 1   
    32   18   23 1   
    33   18   24 1   
    34   19   20 1   
    35   19   21 1   
    36   19   22 1   
    37   23   39 1   
    38   23   40 1   
    39   23   43 1   
    40   24   25 2   
    41   24   26 1   
    42   26   27 1   
    43   26   41 1   
    44   26   44 1   
    45   27   42 1   
@<TRIPOS>SUBSTRUCTURE
     1 7MR         1 TEMP              0 ****  ****    0 ROOT
