@<TRIPOS>MOLECULE
7NA
   28    28     1     0     0
SMALL
bcc


@<TRIPOS>ATOM
      1 C1A         0.6440    0.8790   -0.0290 c3        1 7NA      0.107700
      2 O1C         6.7940   -0.5800    0.7200 o         1 7NA     -0.824300
      3 O1D         5.5370   -2.3350    1.2640 o         1 7NA     -0.824300
      4 O1E         7.6350    0.5080    3.0950 oh        1 7NA     -0.544100
      5 C1F         5.8990    1.0790    4.5580 ca        1 7NA     -0.205000
      6 C1G         4.5690    1.0310    4.9400 ca        1 7NA     -0.093000
      7 C1H         1.5780   -1.0190    2.3600 cu        1 7NA     -0.307200
      8 C1I         3.0660   -1.0890    2.1630 cx        1 7NA      0.054000
      9 O1J         1.9690    0.3990    0.2270 os        1 7NA     -0.245900
     10 C1K         5.9220   -1.1490    1.4470 c         1 7NA      0.916200
     11 C1L         2.2910    0.3270    4.6320 cg        1 7NA     -0.042000
     12 C1M         2.0670   -0.3670    1.3220 cu        1 7NA      0.011900
     13 C1N         6.3050    0.3950    3.3970 ca        1 7NA      0.181100
     14 C1O         5.3860   -0.3560    2.6330 ca        1 7NA     -0.190600
     15 C1P         3.6240    0.3270    4.1730 ca        1 7NA     -0.062000
     16 C1Q         4.0330   -0.3570    3.0060 ca        1 7NA      0.015700
     17 H1A        -0.0540    0.0250   -0.1970 h1        1 7NA      0.037033
     18 H1AA        0.2870    1.5090    0.8200 h1        1 7NA      0.037033
     19 H1AB        0.7610    1.4880   -0.9580 h1        1 7NA      0.037033
     20 H1B         0.1950    0.3770    5.4640 ha        1 7NA      0.148500
     21 H1BA       -0.6400   -1.6030    4.7110 ha        1 7NA      0.000500
     22 H1BB       -1.1190   -2.0300    4.4950 ha        1 7NA      0.000500
     23 HO1E        7.7970    0.1220    2.2080 ho        1 7NA      0.478000
     24 H1F         6.6400    1.6400    5.1410 ha        1 7NA      0.128000
     25 H1G         4.2440    1.5540    5.8510 ha        1 7NA      0.113000
     26 H1H         0.7690   -1.3230    2.9850 ha        1 7NA      0.179000
     27 H1I         3.5130   -2.0310    1.7560 hc        1 7NA      0.137700
     28 C1B         1.1810    0.3590    5.0830 c1        1 7NA     -0.244500
@<TRIPOS>BOND
     1    1    9 1   
     2    1   17 1   
     3    1   18 1   
     4    1   19 1   
     5    2   10 1   
     6    3   10 1   
     7    4   13 1   
     8    4   23 1   
     9    5    6 ar  
    10    5   13 ar  
    11    5   24 1   
    12    6   15 ar  
    13    6   25 1   
    14    7    8 1   
    15    7   12 2   
    16    7   26 1   
    17    8   12 1   
    18    8   16 1   
    19    8   27 1   
    20    9   12 1   
    21   10   14 1   
    22   11   15 1   
    23   11   28 3   
    24   13   14 ar  
    25   14   16 ar  
    26   15   16 ar  
    27   20   28 1   
    28   21   22 1   
@<TRIPOS>SUBSTRUCTURE
     1 7NA         1 TEMP              0 ****  ****    0 ROOT
