@<TRIPOS>MOLECULE
7NA
   28    27     1     0     0
SMALL
bcc


@<TRIPOS>ATOM
      1 C1A         1.2750    0.2000   -0.3300 c3        1 7NA      0.103700
      2 O1C         2.7530    0.3840    2.1540 os        1 7NA     -0.353200
      3 O1D         4.3140   -0.0720    0.6130 o         1 7NA     -0.455000
      4 O1E         7.0880   -0.5140    2.2870 oh        1 7NA     -0.527100
      5 C1F         6.6690   -0.2390    4.6110 ca        1 7NA     -0.337000
      6 C1G         5.7770    0.0330    5.6630 ca        1 7NA     -0.003000
      7 C1H        -1.7400    0.8050   -1.8060 c1        1 7NA     -0.259500
      8 C1I         2.6830    0.5130    3.5670 cc        1 7NA     -0.208900
      9 O1J         0.7670    0.7070   -1.5860 os        1 7NA     -0.235400
     10 C1K         4.0810    0.0780    1.8250 cc        1 7NA      0.425100
     11 C1L         3.5830    0.5660    6.5530 cg        1 7NA     -0.030000
     12 C1M        -0.5560    0.7410   -1.6540 c1        1 7NA      0.004600
     13 C1N         6.1930   -0.2450    3.2950 ca        1 7NA      0.276100
     14 C1O         4.8510    0.0150    3.0390 ca        1 7NA     -0.381000
     15 C1P         4.4300    0.3000    5.4680 ca        1 7NA     -0.118000
     16 C1Q         3.9190    0.3000    4.1290 ca        1 7NA      0.039000
     17 H1A         0.9290    0.8380    0.5170 h1        1 7NA      0.071700
     18 H1AA        0.9500   -0.8560   -0.1900 h1        1 7NA      0.071700
     19 H1AB        2.3890    0.2730   -0.4490 h1        1 7NA      0.071700
     20 H1B         2.2200    0.9930    8.2990 ha        1 7NA      0.142500
     21 H1BA        2.9310   -4.6020    4.4720 ha        1 7NA      0.000000
     22 H1BB        3.1110   -3.9590    4.3630 ha        1 7NA      0.000000
     23 HO1E        6.5960   -0.4770    1.4490 ho        1 7NA      0.437000
     24 H1F         7.7240   -0.4440    4.8140 ha        1 7NA      0.120000
     25 H1G         6.1800    0.0320    6.6890 ha        1 7NA      0.100000
     26 H1H        -2.7840    0.8670   -1.9430 ha        1 7NA      0.166500
     27 H1I         1.6980    0.7520    3.9350 h4        1 7NA      0.161000
     28 C1B         2.8600    0.7930    7.4840 c1        1 7NA     -0.280500
@<TRIPOS>BOND
     1    1    9 1   
     2    1   17 1   
     3    1   18 1   
     4    1   19 1   
     5    2    8 1   
     6    2   10 1   
     7    3   10 1   
     8    4   13 1   
     9    4   23 1   
    10    5    6 ar  
    11    5   13 ar  
    12    5   24 1   
    13    6   15 ar  
    14    6   25 1   
    15    7   12 3   
    16    7   26 1   
    17    8   16 2   
    18    8   27 1   
    19    9   12 1   
    20   10   14 2   
    21   11   15 1   
    22   11   28 3   
    23   13   14 ar  
    24   14   16 ar  
    25   15   16 ar  
    26   20   28 1   
    27   21   22 1   
@<TRIPOS>SUBSTRUCTURE
     1 7NA         1 TEMP              0 ****  ****    0 ROOT
