@<TRIPOS>MOLECULE
7NA
   28    26     1     0     0
SMALL
bcc


@<TRIPOS>ATOM
      1 C1A        -2.7330    0.7270   -3.1600 c3        1 7NA     -0.075000
      2 C1B         2.2200    2.2660   -0.7930 c3        1 7NA     -0.169000
      3 O1C        -0.8850   -3.7070    0.9880 o         1 7NA     -0.566500
      4 O1D        -2.3760   -2.6120    2.1520 o         1 7NA     -0.566500
      5 O1E         0.2220   -2.0510    3.8630 oh        1 7NA     -0.303000
      6 C1F         1.5260   -0.4990    2.6740 c1        1 7NA     -0.167000
      7 C1G         1.7640    0.3660    1.6080 c1        1 7NA     -0.118000
      8 C1H         0.2810    1.2540   -1.6920 c1        1 7NA     -0.160000
      9 C1I        -1.0180   -0.5230   -0.6950 c1        1 7NA     -0.174000
     10 O1J        -1.3730    0.2420   -3.0640 os        1 7NA     -0.234000
     11 C1K        -1.2720   -2.6410    1.5370 c2        1 7NA      0.365000
     12 C1L         1.1390    1.2490   -0.5880 c2        1 7NA     -0.051000
     13 C1M        -0.8000    0.3650   -1.7430 c1        1 7NA      0.043000
     14 C1N         0.4570   -1.3810    2.6260 c2        1 7NA      0.115000
     15 C1O        -0.3830   -1.4020    1.5080 c2        1 7NA     -0.183000
     16 C1P         0.9170    0.3460    0.4780 c2        1 7NA     -0.098000
     17 C1Q        -0.1430   -0.5270    0.4300 c1        1 7NA      0.052000
     18 H1A        -2.8470    1.5040   -2.5640 h1        1 7NA      0.080000
     19 H1AA       -2.9210    0.9970   -4.0920 h1        1 7NA      0.080000
     20 H1AB       -3.3530    0.0170   -2.8940 h1        1 7NA      0.080000
     21 H1B         3.0760    1.8070   -0.9440 hc        1 7NA      0.071667
     22 H1BA        2.2900    2.8340    0.0040 hc        1 7NA      0.071667
     23 H1BB        2.0080    2.8150   -1.5640 hc        1 7NA      0.071667
     24 HO1E        0.8640   -2.6610    3.9980 ho        1 7NA      0.276000
     25 H1F         2.1440   -0.5180    3.4380 ha        1 7NA      0.126000
     26 H1G         2.5230    0.9910    1.6430 ha        1 7NA      0.110000
     27 H1H         0.4360    1.8770   -2.4280 ha        1 7NA      0.126000
     28 H1I        -1.7630   -1.1360   -0.7290 ha        1 7NA      0.197000
@<TRIPOS>BOND
     1    1   10 1   
     2    1   18 1   
     3    1   19 1   
     4    1   20 1   
     5    2   12 1   
     6    2   21 1   
     7    2   22 1   
     8    2   23 1   
     9    3   11 1   
    10    4   11 1   
    11    5   14 1   
    12    5   24 1   
    13    6   14 1   
    14    6   25 1   
    15    7   16 1   
    16    7   26 1   
    17    8   12 1   
    18    8   27 1   
    19    9   13 1   
    20    9   28 1   
    21   10   13 1   
    22   11   15 1   
    23   12   16 1   
    24   14   15 1   
    25   15   17 1   
    26   16   17 1   
@<TRIPOS>SUBSTRUCTURE
     1 7NA         1 TEMP              0 ****  ****    0 ROOT
