@<TRIPOS>MOLECULE
7NA
   28    29     1     0     0
SMALL
bcc


@<TRIPOS>ATOM
      1 C1A         3.3470   -2.5470    0.0230 c3        1 7NA      0.114700
      2 O1C        -0.9360   -2.5340   -0.0600 o         1 7NA     -0.831800
      3 O1D        -2.4530   -1.8130   -1.5120 o         1 7NA     -0.831800
      4 O1E        -3.4500    0.5980   -0.7230 oh        1 7NA     -0.549100
      5 C1F        -1.8260    2.1950   -0.1750 ca        1 7NA     -0.167000
      6 C1G        -0.5370    2.5660    0.1000 ca        1 7NA     -0.118000
      7 C1H         2.8640    1.0500    0.3980 ca        1 7NA     -0.160000
      8 C1I         1.2550   -0.7150   -0.1140 ca        1 7NA     -0.174000
      9 O1J         3.6420   -1.1650    0.1920 os        1 7NA     -0.350900
     10 C1K        -1.5190   -1.6000   -0.6770 c         1 7NA      0.916200
     11 C1L         1.8620    1.9920    0.3820 ca        1 7NA     -0.058300
     12 C1M         2.5450   -0.3140    0.1480 ca        1 7NA      0.088100
     13 C1N        -2.1280    0.8290   -0.4480 ca        1 7NA      0.160100
     14 C1O        -1.1420   -0.1520   -0.4120 ca        1 7NA     -0.203600
     15 C1P         0.5110    1.6080    0.1170 ca        1 7NA     -0.098000
     16 C1Q         0.2000    0.2420   -0.1350 ca        1 7NA      0.052000
     17 H1A         4.3410   -3.0460    0.1430 h1        1 7NA      0.040700
     18 H1AA        2.6280   -2.8980    0.8030 h1        1 7NA      0.040700
     19 H1AB        2.9310   -2.7370   -0.9970 h1        1 7NA      0.040700
     20 H1B         1.9000    4.0480   -0.2330 hc        1 7NA      0.032367
     21 H1BA        1.6360    3.7830    1.5420 hc        1 7NA      0.032367
     22 H1BB        3.2840    3.5510    0.8260 hc        1 7NA      0.032367
     23 HO1E       -3.5570   -0.3280   -1.0240 ho        1 7NA      0.477000
     24 H1F        -2.6450    2.9260   -0.1970 ha        1 7NA      0.126000
     25 H1G        -0.3040    3.6200    0.3080 ha        1 7NA      0.110000
     26 H1H         3.9100    1.3190    0.5990 ha        1 7NA      0.126000
     27 H1I         0.9910   -1.7740   -0.2920 ha        1 7NA      0.197000
     28 C1B         2.1900    3.4150    0.6430 c3        1 7NA     -0.043800
@<TRIPOS>BOND
     1    1    9 1   
     2    1   17 1   
     3    1   18 1   
     4    1   19 1   
     5    2   10 1   
     6    3   10 1   
     7    4   13 1   
     8    4   23 1   
     9    5    6 ar  
    10    5   13 ar  
    11    5   24 1   
    12    6   15 ar  
    13    6   25 1   
    14    7   11 ar  
    15    7   12 ar  
    16    7   26 1   
    17    8   12 ar  
    18    8   16 ar  
    19    8   27 1   
    20    9   12 1   
    21   10   14 1   
    22   11   15 ar  
    23   11   28 1   
    24   13   14 ar  
    25   14   16 ar  
    26   15   16 ar  
    27   20   28 1   
    28   21   28 1   
    29   22   28 1   
@<TRIPOS>SUBSTRUCTURE
     1 7NA         1 TEMP              0 ****  ****    0 ROOT
