@<TRIPOS>MOLECULE
7NH
   47    50     1     0     0
SMALL
bcc


@<TRIPOS>ATOM
      1 N1          0.3980   -0.0040   -0.1800 nb        1 7NH     -0.668000
      2 C2          1.7330    0.2050   -0.0150 ca        1 7NH      0.426200
      3 C3          2.3850    0.3050    1.2160 ca        1 7NH     -0.256300
      4 C4          1.5750    0.1750    2.3600 ca        1 7NH     -0.004200
      5 C5          0.1510   -0.0460    2.2110 ca        1 7NH     -0.234100
      6 C6         -0.3710   -0.1270    0.9030 ca        1 7NH      0.458200
      7 N3          1.8700    0.2200    3.7180 na        1 7NH     -0.170400
      8 CN4        -0.3930   -0.1350    3.5380 cc        1 7NH     -0.148200
      9 C8          0.6730    0.0300    4.4340 cd        1 7NH     -0.067300
     10 C1'         0.6280   -0.0020    5.8860 ca        1 7NH     -0.093800
     11 C2'         1.4940   -0.8300    6.6050 ca        1 7NH     -0.047000
     12 C3'         1.4320   -0.8870    7.9990 ca        1 7NH     -0.151000
     13 C4'         0.5000   -0.1220    8.6880 ca        1 7NH     -0.078000
     14 C5'        -0.3820    0.7280    8.0020 cp        1 7NH     -0.143000
     15 C6'        -0.3030    0.7930    6.5930 ca        1 7NH      0.178100
     16 O6'        -1.1790    1.6460    5.9700 oh        1 7NH     -0.524100
     17 C1B        -1.3460    1.5320    8.7450 cp        1 7NH      0.024000
     18 C2B        -1.5660    2.8850    8.4130 ca        1 7NH      0.014000
     19 C3B        -2.4790    3.6590    9.1370 ca        1 7NH     -0.126000
     20 C4B        -3.1950    3.1020   10.1880 ca        1 7NH     -0.078000
     21 C5B        -2.9870    1.7500   10.5330 ca        1 7NH     -0.238300
     22 C6B        -2.0620    0.9720    9.8050 ca        1 7NH     -0.087000
     23 C51        -3.6920    1.1640   11.6660 c3        1 7NH      0.233100
     24 N52        -5.0010    0.4930   11.0810 n4        1 7NH     -0.681800
     25 C53        -5.7120   -0.3250   12.0760 c         1 7NH      0.483100
     26 O53        -5.2250   -1.3120   12.6010 o         1 7NH     -0.288100
     27 N54        -7.0930    0.0820   12.5230 n4        1 7NH     -0.742400
     28 H2          2.3050    0.2960   -0.9580 h4        1 7NH      0.038100
     29 H3          3.4660    0.4720    1.2810 ha        1 7NH      0.156000
     30 H6         -1.4480   -0.3000    0.7310 h4        1 7NH      0.029100
     31 HN3         2.7630    0.3430    4.1170 hn        1 7NH      0.310700
     32 HN4        -1.4310   -0.3290    3.7930 ha        1 7NH      0.156000
     33 H2'         2.2260   -1.4530    6.0640 ha        1 7NH      0.164000
     34 H3'         2.1270   -1.5390    8.5500 ha        1 7NH      0.160000
     35 H4'         0.4650   -0.1640    9.7880 ha        1 7NH      0.133000
     36 H6'        -0.9830    1.6560    5.0140 ho        1 7NH      0.463000
     37 H2B        -1.0110    3.3300    7.5640 ha        1 7NH      0.197000
     38 H3B        -2.6210    4.7220    8.8730 ha        1 7NH      0.182000
     39 H4B        -3.8950    3.7230   10.7670 ha        1 7NH      0.141000
     40 H6B        -1.8810   -0.0790   10.0850 ha        1 7NH      0.149000
     41 H511       -4.0480    1.9210   12.4170 hx        1 7NH      0.117700
     42 H512       -3.1280    0.3260   12.1660 hx        1 7NH      0.117700
     43 H52        -5.5800    1.2280   10.6560 hn        1 7NH      0.487300
     44 H541       -7.7660    0.0470   11.7420 hn        1 7NH      0.507467
     45 H542       -7.4070   -0.5910   13.2520 hn        1 7NH      0.507467
     46 H522       -4.6830   -0.1380   10.3160 hn        1 7NH      0.487300
     47 H543       -7.0980    1.0280   12.9330 hn        1 7NH      0.507467
@<TRIPOS>BOND
     1    1    2 ar  
     2    1    6 ar  
     3    2    3 ar  
     4    2   28 1   
     5    3    4 ar  
     6    3   29 1   
     7    4    5 ar  
     8    4    7 1   
     9    5    6 ar  
    10    5    8 1   
    11    6   30 1   
    12    7    9 1   
    13    7   31 1   
    14    8    9 2   
    15    8   32 1   
    16    9   10 1   
    17   10   11 ar  
    18   10   15 ar  
    19   11   12 ar  
    20   11   33 1   
    21   12   13 ar  
    22   12   34 1   
    23   13   14 ar  
    24   13   35 1   
    25   14   15 ar  
    26   14   17 1   
    27   15   16 1   
    28   16   36 1   
    29   17   18 ar  
    30   17   22 ar  
    31   18   19 ar  
    32   18   37 1   
    33   19   20 ar  
    34   19   38 1   
    35   20   21 ar  
    36   20   39 1   
    37   21   22 ar  
    38   21   23 1   
    39   22   40 1   
    40   23   24 1   
    41   23   41 1   
    42   23   42 1   
    43   24   25 1   
    44   24   43 1   
    45   24   46 1   
    46   25   26 2   
    47   25   27 1   
    48   27   44 1   
    49   27   45 1   
    50   27   47 1   
@<TRIPOS>SUBSTRUCTURE
     1 7NH         1 TEMP              0 ****  ****    0 ROOT
