@<TRIPOS>MOLECULE
7NH
   47    50     1     0     0
SMALL
bcc


@<TRIPOS>ATOM
      1 N1          0.0000    0.0000    0.0000 nb        1 7NH     -0.580000
      2 C2          1.3230    0.0000    0.0000 ca        1 7NH      0.457200
      3 C3          2.0440    0.0000    1.1740 ca        1 7NH     -0.177300
      4 C4          1.3570    0.0010    2.3850 ca        1 7NH     -0.220200
      5 C5         -0.0540    0.0010    2.3500 ca        1 7NH     -0.264100
      6 C6         -0.7020    0.0010    1.1140 ca        1 7NH      0.512200
      7 N3          1.7360    0.0020    3.7040 na        1 7NH      0.429600
      8 CN4        -0.4970   -0.0030    3.7420 cc        1 7NH     -0.047200
      9 C8          0.6210    0.0020    4.5110 cd        1 7NH     -0.213300
     10 C1'         0.6390    0.0030    5.9890 ca        1 7NH     -0.063800
     11 C2'         1.5720   -0.7720    6.6790 ca        1 7NH     -0.048000
     12 C3'         1.5890   -0.7720    8.0600 ca        1 7NH     -0.093000
     13 C4'         0.6850   -0.0060    8.7690 ca        1 7NH     -0.056000
     14 C5'        -0.2530    0.7760    8.0970 cp        1 7NH     -0.119000
     15 C6'        -0.2830    0.7780    6.7020 ca        1 7NH      0.165100
     16 O6'        -1.1940    1.5350    6.0390 oh        1 7NH     -0.507100
     17 C1B        -1.2220    1.5980    8.8630 cp        1 7NH      0.025000
     18 C2B        -1.3940    2.9450    8.5520 ca        1 7NH     -0.010000
     19 C3B        -2.2970    3.7050    9.2690 ca        1 7NH     -0.066000
     20 C4B        -3.0300    3.1320   10.2920 ca        1 7NH     -0.071000
     21 C5B        -2.8630    1.7940   10.6040 ca        1 7NH     -0.227300
     22 C6B        -1.9590    1.0270    9.8990 ca        1 7NH     -0.069000
     23 C51        -3.6660    1.1760   11.7190 c3        1 7NH      0.080100
     24 N52        -4.9190    0.6420   11.1820 ny        1 7NH      0.176200
     25 C53        -5.8010    0.0400   12.0020 c         1 7NH     -0.025900
     26 O53        -5.5580   -0.0610   13.1890 o         1 7NH     -0.338100
     27 N54        -6.9550   -0.4520   11.5080 nz        1 7NH      0.248600
     28 H2          1.8520   -0.0000   -0.9460 h4        1 7NH     -0.002900
     29 H3          3.1270    0.0000    1.1550 ha        1 7NH      0.124000
     30 H6         -1.7840    0.0010    1.0710 h4        1 7NH     -0.014900
     31 HN3         2.6830    0.0050    4.0300 hn        1 7NH      0.127700
     32 HN4        -1.5210   -0.0050    4.0930 ha        1 7NH      0.141000
     33 H2'         2.2830   -1.3780    6.1300 ha        1 7NH      0.118000
     34 H3'         2.3130   -1.3790    8.5890 ha        1 7NH      0.126000
     35 H4'         0.7090   -0.0080    9.8530 ha        1 7NH      0.111000
     36 H6'        -0.7680    2.2950    5.6770 ho        1 7NH      0.422000
     37 H2B        -0.8210    3.3950    7.7510 ha        1 7NH      0.128000
     38 H3B        -2.4320    4.7530    9.0280 ha        1 7NH      0.135000
     39 H4B        -3.7290    3.7360   10.8590 ha        1 7NH      0.110000
     40 H6B        -1.8290   -0.0200   10.1440 ha        1 7NH      0.113000
     41 H511       -3.8860    1.9290   12.4660 hx        1 7NH      0.096700
     42 H512       -3.0970    0.3740   12.1720 hx        1 7NH      0.096700
     43 H52        -5.3990    1.4070   10.7490 hn        1 7NH      0.252300
     44 H541       -6.7670   -0.9620   10.6670 hn        1 7NH      0.255467
     45 H542       -7.3730   -1.0630   12.1820 hn        1 7NH      0.255467
     46 H522       -4.6730   -0.0260   10.4780 hn        1 7NH      0.252300
     47 H543       -7.5820    0.3020   11.3090 hn        1 7NH      0.255467
@<TRIPOS>BOND
     1    1    2 ar  
     2    1    6 ar  
     3    2    3 ar  
     4    2   28 1   
     5    3    4 ar  
     6    3   29 1   
     7    4    5 ar  
     8    4    7 1   
     9    5    6 ar  
    10    5    8 1   
    11    6   30 1   
    12    7    9 1   
    13    7   31 1   
    14    8    9 2   
    15    8   32 1   
    16    9   10 1   
    17   10   11 ar  
    18   10   15 ar  
    19   11   12 ar  
    20   11   33 1   
    21   12   13 ar  
    22   12   34 1   
    23   13   14 ar  
    24   13   35 1   
    25   14   15 ar  
    26   14   17 1   
    27   15   16 1   
    28   16   36 1   
    29   17   18 ar  
    30   17   22 ar  
    31   18   19 ar  
    32   18   37 1   
    33   19   20 ar  
    34   19   38 1   
    35   20   21 ar  
    36   20   39 1   
    37   21   22 ar  
    38   21   23 1   
    39   22   40 1   
    40   23   24 1   
    41   23   41 1   
    42   23   42 1   
    43   24   25 1   
    44   24   43 1   
    45   24   46 1   
    46   25   26 2   
    47   25   27 1   
    48   27   44 1   
    49   27   45 1   
    50   27   47 1   
@<TRIPOS>SUBSTRUCTURE
     1 7NH         1 TEMP              0 ****  ****    0 ROOT
