@<TRIPOS>MOLECULE
7NH
   45    48     1     0     0
SMALL
bcc


@<TRIPOS>ATOM
      1 N1         -7.0350    2.2660   -0.1390 nb        1 7NH     -0.691000
      2 C2         -7.6030    1.0350   -0.0320 ca        1 7NH      0.402200
      3 C3         -6.9040   -0.1620    0.1400 ca        1 7NH     -0.263300
      4 C4         -5.5030   -0.0620    0.2030 ca        1 7NH     -0.014200
      5 C5         -4.8710    1.2380    0.0890 ca        1 7NH     -0.223100
      6 C6         -5.7020    2.3610   -0.0790 ca        1 7NH      0.449200
      7 N3         -4.5080   -1.0140    0.3810 na        1 7NH     -0.186400
      8 CN4        -3.4530    1.0150    0.1830 cc        1 7NH     -0.124200
      9 C8         -3.2560   -0.3600    0.3520 cd        1 7NH     -0.007300
     10 C1'        -2.0050   -1.0810    0.5080 ca        1 7NH     -0.063800
     11 C2'        -1.9410   -2.2410    1.2910 ca        1 7NH     -0.092000
     12 C3'        -0.7450   -2.9360    1.4470 ca        1 7NH     -0.163000
     13 C4'         0.4130   -2.4870    0.8190 ca        1 7NH     -0.075000
     14 C5'         0.3920   -1.3340    0.0260 cp        1 7NH     -0.122000
     15 C6'        -0.8190   -0.6240   -0.1160 ca        1 7NH      0.161100
     16 O6'        -0.9160    0.5350   -0.8460 oh        1 7NH     -0.491100
     17 C1B         1.6250   -0.9000   -0.6340 cp        1 7NH     -0.052000
     18 C2B         1.6750   -0.7410   -2.0260 ca        1 7NH     -0.129000
     19 C3B         2.8630   -0.3550   -2.6430 ca        1 7NH     -0.130000
     20 C4B         4.0090   -0.1270   -1.8830 ca        1 7NH     -0.104000
     21 C5B         3.9690   -0.2860   -0.4940 ca        1 7NH     -0.102300
     22 C6B         2.7790   -0.6710    0.1270 ca        1 7NH     -0.105000
     23 C51         5.2090   -0.0860    0.3280 c3        1 7NH      0.124300
     24 N52         5.7550    1.2470    0.1900 n         1 7NH     -0.544900
     25 C53         7.0110    1.4840    0.7900 c         1 7NH      0.731100
     26 O53         7.7390    0.5320    1.1610 o         1 7NH     -0.635100
     27 N54         7.4500    2.8030    0.9670 n         1 7NH     -0.644000
     28 H2         -8.7060    1.0290   -0.0910 h4        1 7NH      0.018100
     29 H3         -7.4250   -1.1230    0.2210 ha        1 7NH      0.141000
     30 H6         -5.2740    3.3750   -0.1680 h4        1 7NH      0.022100
     31 HN3        -4.6380   -1.9900    0.3970 hn        1 7NH      0.299700
     32 HN4        -2.6730    1.7700    0.1210 ha        1 7NH      0.171000
     33 H2'        -2.8420   -2.6050    1.8080 ha        1 7NH      0.135000
     34 H3'        -0.7150   -3.8420    2.0700 ha        1 7NH      0.140000
     35 H4'         1.3580   -3.0390    0.9380 ha        1 7NH      0.142000
     36 H6'        -0.0370    0.7570   -1.1920 ho        1 7NH      0.430000
     37 H2B         0.7760   -0.9360   -2.6310 ha        1 7NH      0.143000
     38 H3B         2.8970   -0.2360   -3.7370 ha        1 7NH      0.139000
     39 H4B         4.9490    0.1730   -2.3730 ha        1 7NH      0.147000
     40 H6B         2.7410   -0.8020    1.2200 ha        1 7NH      0.143000
     41 H511        6.0010   -0.8180   -0.0110 h1        1 7NH      0.064700
     42 H512        4.9870   -0.3150    1.4120 h1        1 7NH      0.064700
     43 H52         5.0850    1.9820    0.2260 hn        1 7NH      0.294500
     44 H541        8.4180    2.8850    1.1810 hn        1 7NH      0.301000
     45 H542        7.0720    3.5170    0.3940 hn        1 7NH      0.301000
@<TRIPOS>BOND
     1    1    2 ar  
     2    1    6 ar  
     3    2    3 ar  
     4    2   28 1   
     5    3    4 ar  
     6    3   29 1   
     7    4    5 ar  
     8    4    7 1   
     9    5    6 ar  
    10    5    8 1   
    11    6   30 1   
    12    7    9 1   
    13    7   31 1   
    14    8    9 2   
    15    8   32 1   
    16    9   10 1   
    17   10   11 ar  
    18   10   15 ar  
    19   11   12 ar  
    20   11   33 1   
    21   12   13 ar  
    22   12   34 1   
    23   13   14 ar  
    24   13   35 1   
    25   14   15 ar  
    26   14   17 1   
    27   15   16 1   
    28   16   36 1   
    29   17   18 ar  
    30   17   22 ar  
    31   18   19 ar  
    32   18   37 1   
    33   19   20 ar  
    34   19   38 1   
    35   20   21 ar  
    36   20   39 1   
    37   21   22 ar  
    38   21   23 1   
    39   22   40 1   
    40   23   24 1   
    41   23   41 1   
    42   23   42 1   
    43   24   25 1   
    44   24   43 1   
    45   25   26 2   
    46   25   27 1   
    47   27   44 1   
    48   27   45 1   
@<TRIPOS>SUBSTRUCTURE
     1 7NH         1 TEMP              0 ****  ****    0 ROOT
