@<TRIPOS>MOLECULE
7NH
   45    34     1     0     0
SMALL
bcc


@<TRIPOS>ATOM
      1 N1         -0.1570    7.0330    2.3470 n1        1 7NH     -0.161000
      2 C2         -1.1300    7.4780    1.4980 c1        1 7NH     -0.121500
      3 C3         -1.6430    6.6330    0.5260 c1        1 7NH     -0.121500
      4 C4         -1.1690    5.3360    0.4150 c1        1 7NH     -0.058000
      5 C5         -0.2030    4.8950    1.2590 c1        1 7NH     -0.058000
      6 C6          0.3130    5.7530    2.2410 c1        1 7NH     -0.016000
      7 N3         -1.4950    4.2950   -0.4490 n1        1 7NH     -0.200000
      8 CN4         0.0820    3.5800    0.9310 c1        1 7NH     -0.181000
      9 C8         -0.7240    3.2210   -0.1260 c2        1 7NH      0.003000
     10 C1'        -1.0850    1.9440    0.3900 c1        1 7NH     -0.128000
     11 C2'        -1.8760    1.8550    1.5240 c1        1 7NH     -0.121500
     12 C3'        -2.2940    0.6090    1.9860 c1        1 7NH     -0.121500
     13 C4'        -1.9170   -0.5470    1.3090 c1        1 7NH     -0.089500
     14 C5'        -1.1240   -0.4590    0.1730 c1        1 7NH     -0.048000
     15 C6'        -0.7060    0.7850   -0.2890 c1        1 7NH      0.122000
     16 O6'        -0.0080    0.8820   -1.5070 oh        1 7NH     -0.249000
     17 C1B        -0.7420   -1.6370   -0.5160 c1        1 7NH     -0.048000
     18 C2B        -1.5170   -2.1050   -1.5620 c1        1 7NH     -0.121500
     19 C3B        -1.2180   -3.3270   -2.1570 c1        1 7NH     -0.121500
     20 C4B        -0.1390   -4.0790   -1.7010 c1        1 7NH     -0.115000
     21 C5B         0.6360   -3.6120   -0.6560 c1        1 7NH     -0.130000
     22 C6B         0.3360   -2.3880   -0.0600 c1        1 7NH     -0.089500
     23 C51         1.7390   -4.5000   -0.0660 c3        1 7NH     -0.006000
     24 N52         2.3390   -5.2890   -1.1200 n         1 7NH     -0.335000
     25 C53         3.7510   -5.3540   -1.2420 c2        1 7NH      0.356000
     26 O53         4.4170   -4.3570   -1.0910 o         1 7NH     -0.406000
     27 N54         4.3870   -6.6020   -1.5110 n         1 7NH     -0.406000
     28 H2         -1.4640    8.3910    1.5750 ha        1 7NH      0.143167
     29 H3         -2.3360    6.9500   -0.0790 ha        1 7NH      0.143167
     30 H6          1.0030    5.4380    2.8430 ha        1 7NH      0.161000
     31 HN3        -2.1230    4.3270   -1.1220 DU        1 7NH      0.211000
     32 HN4         0.7350    3.0110    1.3690 DU        1 7NH      0.211000
     33 H2'        -2.1400    2.6610    1.9970 ha        1 7NH      0.143167
     34 H3'        -2.8540    0.5460    2.7880 ha        1 7NH      0.143167
     35 H4'        -2.2090   -1.4170    1.6320 ha        1 7NH      0.153500
     36 H6'         0.8470    1.0390   -1.3450 ho        1 7NH      0.233000
     37 H2B        -2.2680   -1.5830   -1.8790 ha        1 7NH      0.143167
     38 H3B        -1.7650   -3.6570   -2.8940 ha        1 7NH      0.143167
     39 H4B         0.0690   -4.9280   -2.1150 ha        1 7NH      0.130000
     40 H6B         0.8800   -2.0590    0.6760 ha        1 7NH      0.153500
     41 H511        2.4220   -3.9370    0.3490 h1        1 7NH      0.114500
     42 H512        1.3520   -5.0970    0.6090 h1        1 7NH      0.114500
     43 H52         1.8090   -5.7340   -1.7130 hn        1 7NH      0.204000
     44 H541        3.9030   -7.2980   -1.8570 hn        1 7NH      0.216000
     45 H542        5.2890   -6.6950   -1.3780 hn        1 7NH      0.216000
@<TRIPOS>BOND
     1    1    6 1   
     2    2    3 1   
     3    2   28 1   
     4    3   29 1   
     5    4    5 1   
     6    6   30 1   
     7    7    9 1   
     8    8    9 1   
     9    9   10 1   
    10   10   15 1   
    11   11   12 1   
    12   11   33 1   
    13   12   34 1   
    14   13   14 1   
    15   13   35 1   
    16   15   16 1   
    17   16   36 1   
    18   17   22 1   
    19   18   19 1   
    20   18   37 1   
    21   19   38 1   
    22   20   21 1   
    23   20   39 1   
    24   21   23 1   
    25   22   40 1   
    26   23   24 1   
    27   23   41 1   
    28   23   42 1   
    29   24   25 1   
    30   24   43 1   
    31   25   26 1   
    32   25   27 1   
    33   27   44 1   
    34   27   45 1   
@<TRIPOS>SUBSTRUCTURE
     1 7NH         1 TEMP              0 ****  ****    0 ROOT
