@<TRIPOS>MOLECULE
7NI
   17    18     1     0     0
SMALL
bcc


@<TRIPOS>ATOM
      1 N1          0.8310    1.6510   -0.0000 na        1 7NI      0.002900
      2 N2          2.1640    1.7860    0.0000 nc        1 7NI     -0.492100
      3 C3          2.7200    0.5580    0.0010 cd        1 7NI      0.354800
      4 C4          1.6280   -1.8500    0.0010 ca        1 7NI     -0.008000
      5 C5          0.3830   -2.4740    0.0010 ca        1 7NI     -0.184000
      6 C6         -0.8120   -1.7430    0.0000 ca        1 7NI     -0.021000
      7 C7         -0.7990   -0.3430    0.0000 ca        1 7NI     -0.201200
      8 C8          0.4500    0.3110    0.0000 ca        1 7NI     -0.002200
      9 C9          1.6790   -0.4620    0.0010 ca        1 7NI     -0.229900
     10 N10        -2.0540    0.4320   -0.0000 no        1 7NI      0.325200
     11 O11        -3.1040   -0.1530   -0.0010 o         1 7NI     -0.218000
     12 O12        -1.9990    1.6360   -0.0010 o         1 7NI     -0.218000
     13 H11         0.2190    2.4400   -0.0010 hn        1 7NI      0.356700
     14 H31         3.8000    0.4010    0.0010 h4        1 7NI      0.063800
     15 H41         2.5550   -2.4430    0.0010 ha        1 7NI      0.150000
     16 H51         0.3260   -3.5740    0.0010 ha        1 7NI      0.150000
     17 H61        -1.7790   -2.2760    0.0000 ha        1 7NI      0.171000
@<TRIPOS>BOND
     1    1    2 1   
     2    1    8 1   
     3    1   13 1   
     4    2    3 2   
     5    3    9 1   
     6    3   14 1   
     7    4    5 ar  
     8    4    9 ar  
     9    4   15 1   
    10    5    6 ar  
    11    5   16 1   
    12    6    7 ar  
    13    6   17 1   
    14    7    8 ar  
    15    7   10 1   
    16    8    9 ar  
    17   10   11 1   
    18   10   12 1   
@<TRIPOS>SUBSTRUCTURE
     1 7NI         1 TEMP              0 ****  ****    0 ROOT
