@<TRIPOS>MOLECULE
7NI
   17    18     1     0     0
SMALL
bcc


@<TRIPOS>ATOM
      1 N1          0.0240    0.0010   -0.0090 na        1 7NI      0.002900
      2 N2          1.3630    0.0000   -0.0490 nc        1 7NI     -0.492100
      3 C3          1.8310   -0.0010    1.2150 cd        1 7NI      0.354800
      4 C4          0.5720   -0.0010    3.5400 ca        1 7NI     -0.008000
      5 C5         -0.7130    0.0000    4.0750 ca        1 7NI     -0.184000
      6 C6         -1.8540    0.0010    3.2610 ca        1 7NI     -0.021000
      7 C7         -1.7430    0.0010    1.8650 ca        1 7NI     -0.201200
      8 C8         -0.4500    0.0010    1.3010 ca        1 7NI     -0.002200
      9 C9          0.7200   -0.0000    2.1590 ca        1 7NI     -0.229900
     10 N10        -2.9400    0.0020    1.0050 no        1 7NI      0.325200
     11 O11        -4.0280    0.0020    1.5150 o         1 7NI     -0.218000
     12 O12        -2.8010    0.0030   -0.1930 o         1 7NI     -0.218000
     13 H11        -0.5320    0.0010   -0.8390 hn        1 7NI      0.356700
     14 H31         2.8970   -0.0010    1.4480 h4        1 7NI      0.063800
     15 H41         1.4550   -0.0010    4.1970 ha        1 7NI      0.150000
     16 H51        -0.8470   -0.0000    5.1680 ha        1 7NI      0.150000
     17 H61        -2.8570    0.0010    3.7250 ha        1 7NI      0.171000
@<TRIPOS>BOND
     1    1    2 1   
     2    1    8 1   
     3    1   13 1   
     4    2    3 2   
     5    3    9 1   
     6    3   14 1   
     7    4    5 ar  
     8    4    9 ar  
     9    4   15 1   
    10    5    6 ar  
    11    5   16 1   
    12    6    7 ar  
    13    6   17 1   
    14    7    8 ar  
    15    7   10 1   
    16    8    9 ar  
    17   10   11 1   
    18   10   12 1   
@<TRIPOS>SUBSTRUCTURE
     1 7NI         1 TEMP              0 ****  ****    0 ROOT
