@<TRIPOS>MOLECULE
7NI
   17    13     1     0     0
SMALL
bcc


@<TRIPOS>ATOM
      1 N1          0.5920    0.0140   -1.9730 ne        1 7NI     -0.288100
      2 N2          1.9630    0.1360   -1.9750 n1        1 7NI     -0.455100
      3 C3          2.3840    0.1710   -0.6890 cg        1 7NI      0.179800
      4 C4          1.1270    0.0600    1.5280 c1        1 7NI      0.049500
      5 C5         -0.1330   -0.0500    2.0940 c1        1 7NI     -0.045000
      6 C6         -1.2500   -0.1480    1.2820 c1        1 7NI     -0.045000
      7 C7         -1.1080   -0.1360   -0.0950 c1        1 7NI     -0.156000
      8 C8          0.1720   -0.0250   -0.6700 c1        1 7NI      0.263400
      9 C9          1.2710    0.0720    0.1280 cg        1 7NI     -0.146000
     10 N10        -2.2880   -0.0420   -0.8770 no        1 7NI      0.280000
     11 O11        -2.8730    1.0270   -0.9750 o         1 7NI     -0.218000
     12 O12        -2.7680   -1.1450   -1.5240 o         1 7NI     -0.218000
     13 H11         0.0570   -0.0320   -2.7090 DU        1 7NI      0.250000
     14 H31         3.3090    0.2530   -0.3900 DU        1 7NI      0.250000
     15 H41         1.9150    0.1290    2.1010 ha        1 7NI      0.092500
     16 H51        -0.2330   -0.0580    3.0650 ha        1 7NI      0.103000
     17 H61        -2.1370   -0.2250    1.6810 ha        1 7NI      0.103000
@<TRIPOS>BOND
     1    1    2 1   
     2    1    8 2   
     3    2    3 3   
     4    3    9 1   
     5    4    9 3   
     6    4   15 1   
     7    5    6 3   
     8    5   16 1   
     9    6   17 1   
    10    7    8 2   
    11    7   10 2   
    12   10   11 1   
    13   10   12 1   
@<TRIPOS>SUBSTRUCTURE
     1 7NI         1 TEMP              0 ****  ****    0 ROOT
