@<TRIPOS>MOLECULE
7NP
   28    29     1     0     0
SMALL
bcc


@<TRIPOS>ATOM
      1 OAM        -0.0220   -0.2150    0.0460 o         1 7NP     -0.531100
      2 CAJ         1.2060   -0.0690    0.0180 c         1 7NP      0.581700
      3 CAB         2.0130   -0.0300    1.2590 ca        1 7NP     -0.141600
      4 CAI         1.9630    0.0400   -1.2860 c3        1 7NP     -0.157700
      5 CAN         1.0630    0.5000   -2.4130 c3        1 7NP     -0.087100
      6 CAH         3.1610    0.9630   -1.1460 c3        1 7NP     -0.070400
      7 CAG         4.0990    0.4770   -0.0620 c3        1 7NP     -0.038100
      8 CAC         3.3930    0.2390    1.2250 ca        1 7NP     -0.068300
      9 CAD         4.1150    0.2670    2.4210 ca        1 7NP     -0.114000
     10 CAE         3.4920    0.0300    3.6450 ca        1 7NP     -0.173000
     11 CAF         2.1190   -0.2360    3.6700 ca        1 7NP      0.105100
     12 CAA         1.3740   -0.2650    2.4780 ca        1 7NP     -0.096000
     13 OAK         1.3880   -0.4860    4.8160 os        1 7NP     -0.322900
     14 CAL         2.1120   -0.4560    6.0400 c3        1 7NP      0.112700
     15 H1          2.3330   -1.0020   -1.5180 hc        1 7NP      0.074700
     16 H2          0.1610   -0.1570   -2.4750 hc        1 7NP      0.044700
     17 H3          0.7210    1.5480   -2.2380 hc        1 7NP      0.044700
     18 H4          1.6120    0.4590   -3.3830 hc        1 7NP      0.044700
     19 H5          2.8090    2.0010   -0.9090 hc        1 7NP      0.051700
     20 H6          3.7090    1.0080   -2.1230 hc        1 7NP      0.051700
     21 H7          4.9190    1.2300    0.0850 hc        1 7NP      0.054200
     22 H8          4.5850   -0.4840   -0.3870 hc        1 7NP      0.054200
     23 H9          5.1950    0.4800    2.3980 ha        1 7NP      0.135000
     24 H10         4.0830    0.0570    4.5710 ha        1 7NP      0.139000
     25 H11         0.2920   -0.4710    2.5080 ha        1 7NP      0.172000
     26 H12         2.5580    0.5540    6.2110 h1        1 7NP      0.044700
     27 H13         1.3300   -0.6770    6.8100 h1        1 7NP      0.044700
     28 H14         2.9070   -1.2410    6.0480 h1        1 7NP      0.044700
@<TRIPOS>BOND
     1    1    2 2   
     2    2    3 1   
     3    2    4 1   
     4    3    8 ar  
     5    3   12 ar  
     6    4    5 1   
     7    4    6 1   
     8    4   15 1   
     9    5   16 1   
    10    5   17 1   
    11    5   18 1   
    12    6    7 1   
    13    6   19 1   
    14    6   20 1   
    15    7    8 1   
    16    7   21 1   
    17    7   22 1   
    18    8    9 ar  
    19    9   10 ar  
    20    9   23 1   
    21   10   11 ar  
    22   10   24 1   
    23   11   12 ar  
    24   11   13 1   
    25   12   25 1   
    26   13   14 1   
    27   14   26 1   
    28   14   27 1   
    29   14   28 1   
@<TRIPOS>SUBSTRUCTURE
     1 7NP         1 TEMP              0 ****  ****    0 ROOT
