@<TRIPOS>MOLECULE
7NP
   28    29     1     0     0
SMALL
bcc


@<TRIPOS>ATOM
      1 OAM        -0.0230   -0.2230    0.0410 o         1 7NP     -0.531100
      2 CAJ         1.2050   -0.0720    0.0130 c         1 7NP      0.581700
      3 CAB         2.0120   -0.0310    1.2540 ca        1 7NP     -0.141600
      4 CAI         1.9620    0.0380   -1.2920 c3        1 7NP     -0.157700
      5 CAN         1.0600    0.4950   -2.4180 c3        1 7NP     -0.087100
      6 CAH         3.1580    0.9630   -1.1520 c3        1 7NP     -0.070400
      7 CAG         4.0960    0.4810   -0.0680 c3        1 7NP     -0.038100
      8 CAC         3.3920    0.2420    1.2200 ca        1 7NP     -0.068300
      9 CAD         4.1140    0.2720    2.4160 ca        1 7NP     -0.114000
     10 CAE         3.4910    0.0350    3.6390 ca        1 7NP     -0.173000
     11 CAF         2.1180   -0.2340    3.6650 ca        1 7NP      0.105100
     12 CAA         1.3730   -0.2660    2.4730 ca        1 7NP     -0.096000
     13 OAK         1.3880   -0.4850    4.8110 os        1 7NP     -0.322900
     14 CAL         2.1120   -0.4510    6.0350 c3        1 7NP      0.112700
     15 H1          2.3340   -1.0030   -1.5240 hc        1 7NP      0.074700
     16 H2          0.1600   -0.1640   -2.4800 hc        1 7NP      0.044700
     17 H3          1.6090    0.4550   -3.3890 hc        1 7NP      0.044700
     18 H4          0.7160    1.5420   -2.2430 hc        1 7NP      0.044700
     19 H5          2.8030    2.0010   -0.9150 hc        1 7NP      0.051700
     20 H6          3.7050    1.0090   -2.1290 hc        1 7NP      0.051700
     21 H7          4.9150    1.2360    0.0790 hc        1 7NP      0.054200
     22 H8          4.5850   -0.4790   -0.3920 hc        1 7NP      0.054200
     23 H9          5.1930    0.4880    2.3930 ha        1 7NP      0.135000
     24 H10         4.0810    0.0640    4.5660 ha        1 7NP      0.139000
     25 H11         0.2920   -0.4750    2.5030 ha        1 7NP      0.172000
     26 H12         2.9080   -1.2340    6.0440 h1        1 7NP      0.044700
     27 H13         1.3300   -0.6740    6.8050 h1        1 7NP      0.044700
     28 H14         2.5550    0.5600    6.2050 h1        1 7NP      0.044700
@<TRIPOS>BOND
     1    1    2 2   
     2    2    3 1   
     3    2    4 1   
     4    3    8 ar  
     5    3   12 ar  
     6    4    5 1   
     7    4    6 1   
     8    4   15 1   
     9    5   16 1   
    10    5   17 1   
    11    5   18 1   
    12    6    7 1   
    13    6   19 1   
    14    6   20 1   
    15    7    8 1   
    16    7   21 1   
    17    7   22 1   
    18    8    9 ar  
    19    9   10 ar  
    20    9   23 1   
    21   10   11 ar  
    22   10   24 1   
    23   11   12 ar  
    24   11   13 1   
    25   12   25 1   
    26   13   14 1   
    27   14   26 1   
    28   14   27 1   
    29   14   28 1   
@<TRIPOS>SUBSTRUCTURE
     1 7NP         1 TEMP              0 ****  ****    0 ROOT
