@<TRIPOS>MOLECULE
7NV
   58    53     1     0     0
SMALL
bcc


@<TRIPOS>ATOM
      1 C15        -2.0190   -0.8180   -6.3030 c1        1 7NV     -0.128750
      2 C16        -0.6430   -1.0440   -6.2480 c1        1 7NV     -0.128750
      3 C17         0.0150   -1.0460   -5.0180 c1        1 7NV     -0.128750
      4 C23        -1.6420   -0.7100    1.3600 c1        1 7NV     -0.133000
      5 C6          2.9510    3.1670    1.2370 c3        1 7NV     -0.153000
      6 C24        -2.6110    0.2200    1.7660 c1        1 7NV     -0.153000
      7 C7          4.3600    3.2580    1.7330 c3        1 7NV     -0.212000
      8 C9         -0.7590   -3.9340    0.5910 c3        1 7NV     -0.127000
      9 C13         0.2340   -0.8670   -2.6510 c3        1 7NV      0.058000
     10 C30        -0.7070   -0.6900    3.5880 c1        1 7NV     -0.041000
     11 C5          2.9360    2.5000   -0.1760 c3        1 7NV     -0.191000
     12 C18        -0.7000   -0.8240   -3.8470 c1        1 7NV     -0.089000
     13 C22        -0.6950   -1.1630    2.2660 c1        1 7NV     -0.111000
     14 C25        -2.6210    0.6910    3.0860 c1        1 7NV     -0.003000
     15 C29        -1.6730    0.2370    3.9910 c1        1 7NV      0.013000
     16 C2          0.2180    0.4710   -1.9590 c2        1 7NV      0.291000
     17 C31         0.2070   -0.7430    4.7980 c2        1 7NV      0.369000
     18 C27        -2.9470    1.8150    5.0540 c3        1 7NV      0.097000
     19 C12         0.6450   -2.2930   -0.6610 c1        1 7NV      0.381000
     20 C4          1.4790    2.1630   -0.5740 c3        1 7NV     -0.031000
     21 C19        -2.0770   -0.5980   -3.9010 c1        1 7NV     -0.087000
     22 C21         0.4480   -2.1120    1.7940 c3        1 7NV      0.006000
     23 N3          1.4760    1.1230   -1.5900 n         1 7NV     -0.361000
     24 O33         0.0540   -1.6430    5.6610 o         1 7NV     -0.548500
     25 O1         -0.8420    1.0430   -1.7670 o         1 7NV     -0.386000
     26 O32         1.0610    0.1630    4.9800 o         1 7NV     -0.548500
     27 O26        -3.3990    1.7020    3.7330 os        1 7NV     -0.240000
     28 O28        -1.8410    0.9700    5.2090 os        1 7NV     -0.197000
     29 O11         1.8470   -2.2870   -0.8050 o         1 7NV     -0.455000
     30 C3         -2.7340   -0.5950   -5.1280 c1        1 7NV     -0.128750
     31 N25        -0.2040   -1.8870   -1.7350 n2        1 7NV     -0.385000
     32 N26         0.0750   -2.7400    0.5700 n3        1 7NV     -0.279000
     33 H15        -2.4690   -0.7310   -7.1770 ha        1 7NV      0.128250
     34 H16        -0.1360   -1.2020   -7.0790 ha        1 7NV      0.128250
     35 H3         -3.7080   -0.4870   -5.1600 ha        1 7NV      0.128250
     36 H17         0.9680   -1.2830   -4.9730 ha        1 7NV      0.128250
     37 H23        -1.6340   -1.0390    0.4380 ha        1 7NV      0.136000
     38 H24        -3.2160    0.6070    1.1100 ha        1 7NV      0.131000
     39 H61C        2.5700    4.0570    1.1780 hc        1 7NV      0.072000
     40 H62C        2.4230    2.6270    1.8590 hc        1 7NV      0.072000
     41 H71C        4.8550    3.9030    1.1930 hc        1 7NV      0.074000
     42 H72C        4.3580    3.5510    2.6780 hc        1 7NV      0.074000
     43 H73C        4.7830    2.3870    1.6650 hc        1 7NV      0.074000
     44 H51C        3.3210    3.1240   -0.8400 hc        1 7NV      0.094500
     45 H52C        3.4710    1.6720   -0.1530 hc        1 7NV      0.094500
     46 H91C       -1.0890   -4.0870    1.5030 h1        1 7NV      0.100667
     47 H92C       -1.5220   -3.8100   -0.0170 h1        1 7NV      0.100667
     48 H93C       -0.2260   -4.7160    0.2970 h1        1 7NV      0.100667
     49 H13         1.1560   -1.0720   -2.9570 h1        1 7NV      0.133000
     50 H25        -1.0320   -2.2410   -1.8140 hn        1 7NV      0.233000
     51 H41C        1.0490    2.9610   -0.9260 h1        1 7NV      0.092000
     52 H42C        0.9880    1.8480    0.2150 h1        1 7NV      0.092000
     53 H19        -2.5870   -0.4400   -3.0640 ha        1 7NV      0.154000
     54 H211        0.6060   -2.7930    2.4750 h1        1 7NV      0.128000
     55 H212        1.2640   -1.5940    1.6580 h1        1 7NV      0.128000
     56 HA          2.2540    0.9370   -2.0680 hn        1 7NV      0.252000
     57 H271       -2.6840    2.7420    5.2370 h2        1 7NV      0.091000
     58 H272       -3.6570    1.5460    5.6700 h2        1 7NV      0.091000
@<TRIPOS>BOND
     1    1   30 1   
     2    1   33 1   
     3    2    3 1   
     4    2   34 1   
     5    3   36 1   
     6    4   13 1   
     7    4   37 1   
     8    5    7 1   
     9    5   11 1   
    10    5   39 1   
    11    5   40 1   
    12    6   14 1   
    13    6   38 1   
    14    7   41 1   
    15    7   42 1   
    16    7   43 1   
    17    8   32 1   
    18    8   46 1   
    19    8   47 1   
    20    8   48 1   
    21    9   12 1   
    22    9   16 1   
    23    9   31 1   
    24    9   49 1   
    25   10   15 1   
    26   10   17 1   
    27   11   20 1   
    28   11   44 1   
    29   11   45 1   
    30   12   21 1   
    31   13   22 1   
    32   14   27 1   
    33   15   28 1   
    34   16   23 1   
    35   16   25 1   
    36   17   24 1   
    37   17   26 1   
    38   18   27 1   
    39   18   28 1   
    40   18   57 1   
    41   18   58 1   
    42   19   29 1   
    43   19   32 1   
    44   20   23 1   
    45   20   51 1   
    46   20   52 1   
    47   21   53 1   
    48   22   32 1   
    49   22   54 1   
    50   22   55 1   
    51   23   56 1   
    52   30   35 1   
    53   31   50 1   
@<TRIPOS>SUBSTRUCTURE
     1 7NV         1 TEMP              0 ****  ****    0 ROOT
