@<TRIPOS>MOLECULE
7NV
   61    60     1     0     0
SMALL
bcc


@<TRIPOS>ATOM
      1 C15       -54.7610 -275.8870   61.9090 c2        1 7NV     -0.149000
      2 C16       -53.3370 -280.0940   61.8970 c2        1 7NV     -0.129000
      3 C17       -54.5040 -279.7130   61.4820 c1        1 7NV     -0.116000
      4 C23       -62.6880 -279.2660   55.8730 ca        1 7NV     -0.091000
      5 C6        186.6590  852.3270 -166.4470 c3        1 7NV     -0.231000
      6 C24       -63.5480 -278.3460   55.2300 ca        1 7NV     -0.052000
      7 C7        185.5210  851.9070 -165.5540 c3        1 7NV     -0.167000
      8 C9        -60.0030 -280.8310   57.2570 cx        1 7NV     -0.182000
      9 C13       -56.6200 -280.2980   60.4100 c3        1 7NV     -0.109000
     10 C30       -61.3790 -277.3640   56.6740 ca        1 7NV     -0.234000
     11 C5        185.8000  850.6120 -164.8100 c3        1 7NV     -0.209000
     12 C18       -55.6850 -279.3120   61.0740 c2        1 7NV     -0.086000
     13 C22       -61.6250 -278.7680   56.5860 ca        1 7NV     -0.097000
     14 C25       -63.3250 -276.9790   55.3120 ca        1 7NV     -0.083000
     15 C29       -62.2170 -276.4560   56.0440 ca        1 7NV      0.174000
     16 C2        -57.8730 -280.4340   61.2640 c2        1 7NV      0.227000
     17 C27       -64.1370 -274.9760   54.2410 c1        1 7NV      0.028000
     18 C4        185.7390  849.4380 -165.7210 c2        1 7NV      0.170000
     19 C19       -56.1850 -277.9530   61.2130 c2        1 7NV     -0.136000
     20 C21       -60.5450 -279.4470   57.3570 cx        1 7NV      0.178000
     21 N3        185.3980  848.2300 -165.3630 n3        1 7NV     -0.177000
     22 O33       -59.5180 -276.2200   57.8760 o         1 7NV     -0.233000
     23 O1        -59.0160 -280.3120   60.8150 o         1 7NV     -0.343000
     24 O32       -59.6660 -278.4420   57.8480 os        1 7NV     -0.244000
     25 O26       -64.2980 -276.1460   54.6840 os        1 7NV      0.008000
     26 O28       -62.0540 -275.1060   56.0680 oh        1 7NV     -0.230000
     27 O11       -56.6000 -282.0970   58.0680 o         1 7NV     -0.284000
     28 C3        -55.4580 -276.9230   61.5640 c1        1 7NV     -0.115000
     29 N25       -56.8980 -279.9480   58.9910 n4        1 7NV     -0.133000
     30 N26       -60.8920 -280.4980   58.3920 n4        1 7NV     -0.149000
     31 H15       -54.2550 -275.2440   61.1710 ha        1 7NV      0.153000
     32 H16       -52.4400 -280.0430   61.2590 ha        1 7NV      0.160500
     33 H3        -54.6360 -275.5860   62.9610 ha        1 7NV      0.153000
     34 H17       -53.1730 -280.4900   62.9130 ha        1 7NV      0.160500
     35 H23       -62.8830 -280.3450   55.7830 ha        1 7NV      0.158000
     36 H24       -64.4160 -278.7160   54.6560 ha        1 7NV      0.187000
     37 H61C      186.8440  851.5790 -167.2550 hc        1 7NV      0.093667
     38 H62C      186.8450  850.6480 -164.3760 hc        1 7NV      0.158000
     39 H71C      186.4150  853.3050 -166.9330 hc        1 7NV      0.093667
     40 H72C      187.6010  852.4570 -165.8610 hc        1 7NV      0.093667
     41 H73C      184.5750  851.8100 -166.1500 hc        1 7NV      0.118500
     42 H51C      185.3410  852.7070 -164.7830 hc        1 7NV      0.118500
     43 H52C      185.0870  850.5090 -163.9460 hc        1 7NV      0.158000
     44 H91C      -59.3310 -278.0460   60.2090 ha        1 7NV      0.002500
     45 H92C      -59.2870 -277.3860   60.0600 ha        1 7NV      0.002500
     46 H93C      -60.3830 -281.5380   56.4910 hx        1 7NV      0.236000
     47 H13       -57.6530 -279.2610   58.9550 hn        1 7NV      0.216500
     48 H25       -56.0600 -279.5210   58.5950 hn        1 7NV      0.216500
     49 H41C      185.3830  847.4660 -166.0170 hn        1 7NV      0.284500
     50 H42C      186.0160  849.6170 -166.7930 h4        1 7NV      0.212000
     51 H19       -57.2650 -277.8150   61.0150 ha        1 7NV      0.136000
     52 H211      -60.4650 -280.4240   59.3150 hn        1 7NV      0.271000
     53 H212      -61.8350 -280.8570   58.4220 hn        1 7NV      0.271000
     54 HA        -57.6690 -280.6610   62.3320 h4        1 7NV      0.148000
     55 H271      -61.2870 -274.8830   56.6280 ho        1 7NV      0.265000
     56 H272      -63.2000 -274.3920   54.2680 ha        1 7NV      0.092000
     57 C12       -57.3710 -281.1650   58.1190 c1        1 7NV     -0.024000
     58 H32       185.1330  848.0060 -164.4180 hn        1 7NV      0.284500
     59 H252      -56.1290 -281.3250   60.3900 hx        1 7NV      0.173000
     60 H261      -58.8530 -281.0110   57.5410 hx        1 7NV      0.236000
     61 C31       -60.1720 -277.1640   57.4750 c2        1 7NV      0.368000
@<TRIPOS>BOND
     1    1   28 1   
     2    1   31 1   
     3    1   33 1   
     4    2    3 1   
     5    2   32 1   
     6    2   34 1   
     7    3   12 1   
     8    4    6 1   
     9    4   13 1   
    10    4   35 1   
    11    5    7 1   
    12    5   37 1   
    13    5   39 1   
    14    5   40 1   
    15    6   14 1   
    16    6   36 1   
    17    7   11 1   
    18    7   41 1   
    19    7   42 1   
    20    8   20 1   
    21    8   30 1   
    22    8   46 1   
    23    8   60 1   
    24    9   12 1   
    25    9   16 1   
    26    9   29 1   
    27    9   59 1   
    28   10   13 1   
    29   10   15 1   
    30   10   61 1   
    31   11   18 1   
    32   11   38 1   
    33   11   43 1   
    34   12   19 1   
    35   13   20 1   
    36   14   15 1   
    37   14   25 1   
    38   15   26 1   
    39   16   23 1   
    40   16   54 1   
    41   17   25 1   
    42   17   56 1   
    43   18   21 1   
    44   18   50 1   
    45   19   28 1   
    46   19   51 1   
    47   20   24 1   
    48   20   30 1   
    49   21   49 1   
    50   21   58 1   
    51   22   61 1   
    52   24   61 1   
    53   26   55 1   
    54   27   57 1   
    55   29   47 1   
    56   29   48 1   
    57   29   57 1   
    58   30   52 1   
    59   30   53 1   
    60   44   45 1   
@<TRIPOS>SUBSTRUCTURE
     1 7NV         1 TEMP              0 ****  ****    0 ROOT
