@<TRIPOS>MOLECULE
7NV
   58    60     1     0     0
SMALL
bcc


@<TRIPOS>ATOM
      1 C15        -2.8260   -5.4200    2.3650 ca        1 7NV     -0.126000
      2 C16        -2.5070   -5.2570    1.0170 ca        1 7NV     -0.139500
      3 C17        -2.4370   -3.9790    0.4630 ca        1 7NV     -0.098000
      4 C23         2.0260    0.1900   -1.6660 ca        1 7NV     -0.130000
      5 C6         -7.0790    2.4100   -1.0380 c3        1 7NV     -0.078400
      6 C24         3.0970   -0.4560   -2.3040 ca        1 7NV     -0.150000
      7 C7         -7.8160    2.5820   -2.3410 c3        1 7NV     -0.091100
      8 C9          0.8570    0.5930    2.1250 c3        1 7NV      0.031300
      9 C13        -2.5840   -1.4830    0.6420 c3        1 7NV      0.102000
     10 C30         3.5140    1.4400   -0.1550 ca        1 7NV     -0.061600
     11 C5         -5.9090    1.4600   -1.1860 c3        1 7NV     -0.101400
     12 C18        -2.6920   -2.8560    1.2580 ca        1 7NV     -0.086300
     13 C22         2.2240    1.1060   -0.6310 ca        1 7NV     -0.119300
     14 C25         4.3580   -0.1290   -1.8450 ca        1 7NV      0.042100
     15 C29         4.5620    0.7990   -0.7930 ca        1 7NV      0.057100
     16 C2         -3.9020   -0.6800    0.8570 c         1 7NV      0.634100
     17 C27         6.5970    0.0420   -1.4860 c3        1 7NV      0.319200
     18 C4         -5.1860    1.3080    0.1540 c3        1 7NV      0.090000
     19 C19        -3.0110   -3.0220    2.6090 ca        1 7NV     -0.098000
     20 C21         1.0220    1.7840   -0.0310 c3        1 7NV      0.132300
     21 N3         -4.0310    0.4590    0.0990 n         1 7NV     -0.565900
     22 O33         3.7430    1.9820    2.1580 o         1 7NV     -0.814300
     23 O1         -4.7790   -1.0360    1.6690 o         1 7NV     -0.632100
     24 O32         3.7720    3.6610    0.6810 o         1 7NV     -0.814300
     25 O26         5.5900   -0.6110   -2.2890 os        1 7NV     -0.356900
     26 O28         5.9350    0.9180   -0.5570 os        1 7NV     -0.314900
     27 O11        -1.2140    0.3640   -0.8380 o         1 7NV     -0.699100
     28 C3         -3.0790   -4.3020    3.1590 ca        1 7NV     -0.139500
     29 N25        -1.4360   -0.7740    1.1400 n         1 7NV     -0.577900
     30 N26         0.2350    0.9720    0.8830 n         1 7NV     -0.425800
     31 H15        -2.8770   -6.4280    2.8000 ha        1 7NV      0.123000
     32 H16        -2.3060   -6.1360    0.3890 ha        1 7NV      0.127000
     33 H3         -3.3350   -4.4260    4.2210 ha        1 7NV      0.127000
     34 H17        -2.1760   -3.8560   -0.5990 ha        1 7NV      0.142000
     35 H23         0.9960   -0.0300   -1.9920 ha        1 7NV      0.141000
     36 H24         2.9390   -1.1730   -3.1160 ha        1 7NV      0.132000
     37 H61C       -6.7080    3.4080   -0.6810 hc        1 7NV      0.039200
     38 H62C       -7.7820    2.0190   -0.2560 hc        1 7NV      0.039200
     39 H71C       -8.6730    3.2860   -2.2130 hc        1 7NV      0.030367
     40 H72C       -7.1360    2.9930   -3.1270 hc        1 7NV      0.030367
     41 H73C       -8.2130    1.6020   -2.7010 hc        1 7NV      0.030367
     42 H51C       -6.2770    0.4620   -1.5400 hc        1 7NV      0.046200
     43 H52C       -5.2020    1.8510   -1.9640 hc        1 7NV      0.046200
     44 H91C        1.1580   -0.4890    2.1360 h1        1 7NV      0.061367
     45 H92C        1.7890    1.2130    2.2910 h1        1 7NV      0.061367
     46 H93C        0.1390    0.7780    2.9690 h1        1 7NV      0.061367
     47 H13        -2.4550   -1.6010   -0.4820 h1        1 7NV      0.097700
     48 H25        -1.2400   -0.8440    2.1100 hn        1 7NV      0.320500
     49 H41C       -4.8600    2.3320    0.5010 h1        1 7NV      0.054200
     50 H42C       -5.9090    0.8970    0.9170 h1        1 7NV      0.054200
     51 H19        -3.2420   -2.1390    3.2260 ha        1 7NV      0.142000
     52 H211        1.3600    2.6920    0.5550 h1        1 7NV      0.087200
     53 H212        0.3450    2.1260   -0.8660 h1        1 7NV      0.087200
     54 HA         -3.3040    0.7060   -0.5380 hn        1 7NV      0.346500
     55 H271        7.1550   -0.7380   -0.9130 h2        1 7NV      0.050700
     56 H272        7.2470    0.6540   -2.1600 h2        1 7NV      0.050700
     57 C12        -0.7940    0.1890    0.3420 c         1 7NV      0.762100
     58 C31         3.7070    2.4400    0.9810 c         1 7NV      0.920200
@<TRIPOS>BOND
     1    1    2 ar  
     2    1   28 ar  
     3    1   31 1   
     4    2    3 ar  
     5    2   32 1   
     6    3   12 ar  
     7    3   34 1   
     8    4    6 ar  
     9    4   13 ar  
    10    4   35 1   
    11    5    7 1   
    12    5   11 1   
    13    5   37 1   
    14    5   38 1   
    15    6   14 ar  
    16    6   36 1   
    17    7   39 1   
    18    7   40 1   
    19    7   41 1   
    20    8   30 1   
    21    8   44 1   
    22    8   45 1   
    23    8   46 1   
    24    9   12 1   
    25    9   16 1   
    26    9   29 1   
    27    9   47 1   
    28   10   13 ar  
    29   10   15 ar  
    30   10   58 1   
    31   11   18 1   
    32   11   42 1   
    33   11   43 1   
    34   12   19 ar  
    35   13   20 1   
    36   14   15 ar  
    37   14   25 1   
    38   15   26 1   
    39   16   21 1   
    40   16   23 2   
    41   17   25 1   
    42   17   26 1   
    43   17   55 1   
    44   17   56 1   
    45   18   21 1   
    46   18   49 1   
    47   18   50 1   
    48   19   28 ar  
    49   19   51 1   
    50   20   30 1   
    51   20   52 1   
    52   20   53 1   
    53   21   54 1   
    54   22   58 1   
    55   24   58 1   
    56   27   57 2   
    57   28   33 1   
    58   29   48 1   
    59   29   57 1   
    60   30   57 1   
@<TRIPOS>SUBSTRUCTURE
     1 7NV         1 TEMP              0 ****  ****    0 ROOT
