@<TRIPOS>MOLECULE
7NV
   61    60     1     0     0
SMALL
bcc


@<TRIPOS>ATOM
      1 C15         1.7060    0.6380   -0.9500 cx        1 7NV     -0.160000
      2 C16         2.3980    1.7910   -0.2610 cx        1 7NV     -0.160000
      3 C17         2.0060    0.5900    0.4860 cu        1 7NV     -0.106000
      4 C23        -1.3740   -6.5280    3.6120 c2        1 7NV     -0.205000
      5 C6          2.9090    9.1940    3.3110 c3        1 7NV     -0.234500
      6 C24        -2.6590   -6.9530    3.6110 c2        1 7NV     -0.025000
      7 C7          5.0250    7.9310    3.7440 c3        1 7NV     -0.234500
      8 C9          0.7370   -4.2160    4.1250 c1        1 7NV     -0.211000
      9 C13         2.5150    0.3430    2.9540 c3        1 7NV     -0.113000
     10 C30        -0.7310   -8.3920    5.1510 cx        1 7NV      0.040000
     11 C5          3.5780    8.1110    4.1440 c3        1 7NV     -0.139000
     12 C18         1.9540   -0.0950    1.6060 c2        1 7NV     -0.109000
     13 C22        -0.3770   -7.1100    4.4860 c2        1 7NV      0.018000
     14 C25        -3.0760   -8.0100    4.4870 c2        1 7NV     -0.224000
     15 C29        -2.1800   -8.6820    5.2650 c2        1 7NV      0.139000
     16 C2          1.7870    1.5850    3.4480 c2        1 7NV      0.215000
     17 C27        -5.3220   -8.3030    3.7180 c1        1 7NV      0.021000
     18 C4          2.7530    6.8650    4.0650 c2        1 7NV      0.162000
     19 C19         1.4170   -1.4520    1.7970 c2        1 7NV     -0.103000
     20 C21         0.8450   -6.5720    4.7370 c2        1 7NV     -0.167000
     21 N3          3.1990    5.6700    3.7920 n8        1 7NV     -0.176000
     22 O33         0.0850   -8.7220    6.3570 os        1 7NV     -0.202000
     23 O1          2.3580    2.6750    3.4990 o         1 7NV     -0.310000
     24 O32         0.9180  -10.4350    4.9190 o         1 7NV     -0.156000
     25 O26        -4.4530   -8.3480    4.6420 os        1 7NV     -0.019000
     26 O28        -2.4780   -9.6760    6.1400 oh        1 7NV     -0.209000
     27 O11         4.4120   -2.9850    4.5100 o         1 7NV     -0.246000
     28 C3          1.6190   -1.8910    3.0580 c2        1 7NV     -0.315000
     29 N25         2.3130   -0.8610    3.8640 ny        1 7NV     -0.003000
     30 N26         1.3550   -5.3530    4.2280 n7        1 7NV     -0.076000
     31 H15         2.2820   -0.0060   -1.6440 hc        1 7NV      0.142000
     32 H16         3.4720    1.9740   -0.4620 hc        1 7NV      0.142000
     33 H3          0.6540    0.7530   -1.2790 hc        1 7NV      0.142000
     34 H17         1.8420    2.7350   -0.1020 hc        1 7NV      0.142000
     35 H23        -1.0540   -5.7240    2.9320 ha        1 7NV      0.138000
     36 H24        -3.4170   -6.4970    2.9520 ha        1 7NV      0.155000
     37 H61C        1.8440    9.3370    3.6150 hc        1 7NV      0.112167
     38 H62C        2.9510    8.9440    2.2230 hc        1 7NV      0.112167
     39 H71C        5.1160    7.5950    2.6820 hc        1 7NV      0.112167
     40 H72C        3.4510   10.1600    3.4690 hc        1 7NV      0.112167
     41 H73C        5.5550    8.9140    3.8350 hc        1 7NV      0.112167
     42 H51C        5.5460    7.2030    4.4120 hc        1 7NV      0.112167
     43 H52C        3.5370    8.4270    5.2350 hc        1 7NV      0.171000
     44 H91C        0.6150   -2.7660    6.3190 ha        1 7NV      0.002500
     45 H92C        1.0420   -2.4150    5.9260 ha        1 7NV      0.002500
     46 H93C       -0.3250   -4.1580    4.4330 ha        1 7NV      0.125000
     47 H13         3.2200   -1.2200    4.1780 hn        1 7NV      0.250000
     48 H25         1.7430   -0.6290    4.6800 hn        1 7NV      0.250000
     49 H41C        4.1720    5.5030    3.5960 hn        1 7NV      0.286000
     50 H42C        1.6590    6.9900    4.2650 h4        1 7NV      0.203000
     51 H19         0.9320   -2.0030    0.9860 ha        1 7NV      0.198000
     52 H211        1.5640   -7.0910    5.4070 h4        1 7NV      0.187000
     53 H212        1.2880   -2.9870    3.5930 hx        1 7NV      0.341000
     54 HA          0.7150    1.4570    3.7180 h4        1 7NV      0.141000
     55 H271       -3.4460   -9.7970    6.1650 ho        1 7NV      0.269000
     56 H272       -5.0910   -7.9790    2.6840 ha        1 7NV      0.052000
     57 C12         4.2530   -4.1440    4.4040 c1        1 7NV      0.254000
     58 H32         2.5970    4.8610    3.7610 hn        1 7NV      0.286000
     59 H252        3.6240    0.5460    2.8740 hx        1 7NV      0.169000
     60 H261        2.3270   -5.4130    3.9610 hn        1 7NV      0.262000
     61 C31         0.2430   -9.4990    5.2460 cu        1 7NV      0.329000
@<TRIPOS>BOND
     1    1    2 1   
     2    1    3 1   
     3    1   31 1   
     4    1   33 1   
     5    2    3 1   
     6    2   32 1   
     7    2   34 1   
     8    3   12 1   
     9    4    6 1   
    10    4   13 1   
    11    4   35 1   
    12    5   11 1   
    13    5   37 1   
    14    5   38 1   
    15    5   40 1   
    16    6   14 1   
    17    6   36 1   
    18    7   11 1   
    19    7   39 1   
    20    7   41 1   
    21    7   42 1   
    22    8   30 1   
    23    8   46 1   
    24    9   12 1   
    25    9   16 1   
    26    9   29 1   
    27    9   59 1   
    28   10   13 1   
    29   10   15 1   
    30   10   22 1   
    31   10   61 1   
    32   11   18 1   
    33   11   43 1   
    34   12   19 1   
    35   13   20 1   
    36   14   15 1   
    37   14   25 1   
    38   15   26 1   
    39   16   23 1   
    40   16   54 1   
    41   17   25 1   
    42   17   56 1   
    43   18   21 1   
    44   18   50 1   
    45   19   28 1   
    46   19   51 1   
    47   20   30 1   
    48   20   52 1   
    49   21   49 1   
    50   21   58 1   
    51   22   61 1   
    52   24   61 1   
    53   26   55 1   
    54   27   57 1   
    55   28   29 1   
    56   28   53 1   
    57   29   47 1   
    58   29   48 1   
    59   30   60 1   
    60   44   45 1   
@<TRIPOS>SUBSTRUCTURE
     1 7NV         1 TEMP              0 ****  ****    0 ROOT
