@<TRIPOS>MOLECULE
7P0
   66    65     1     0     0
SMALL
bcc


@<TRIPOS>ATOM
      1 C20         0.8480    0.1360    0.0110 c2        1 7P0      0.330000
      2 O22         1.9190    0.7090   -0.1410 o         1 7P0     -0.215000
      3 C21        -0.1810    0.3660    1.0020 c2        1 7P0     -0.327000
      4 C23        -1.5120    0.3370    0.7590 c2        1 7P0      0.058000
      5 C24        -2.5800    0.5720    1.6670 c2        1 7P0     -0.294000
      6 C27        -2.5430    0.8360    3.0200 c2        1 7P0      0.223000
      7 C26        -1.2740    0.9070    3.7820 c2        1 7P0     -0.421000
      8 C25        -0.7080    2.0790    4.0800 c1        1 7P0      0.347000
      9 C31        -0.6540   -0.3700    4.1700 c2        1 7P0     -0.236000
     10 C30        -1.3760   -1.4520    4.5130 c1        1 7P0      0.314000
     11 C29        -3.8160    1.3170    5.0980 c2        1 7P0      0.258000
     12 O32        -4.9330    1.4920    5.5840 o         1 7P0     -0.254000
     13 N28        -3.7140    1.0560    3.7170 n         1 7P0     -0.339000
     14 O40         0.7290   -0.4420    4.0460 oh        1 7P0     -0.248000
     15 N19         0.6050   -1.0460   -0.9330 n4        1 7P0     -0.119000
     16 C17         1.0080   -0.7780   -2.3560 c3        1 7P0     -0.056000
     17 C16        -0.1720   -0.1510   -3.1430 c2        1 7P0      0.303000
     18 O39        -1.2920   -0.0310   -2.6040 o         1 7P0     -0.378000
     19 C18         1.4400   -2.0360   -3.0380 c2        1 7P0     -0.279000
     20 C33         2.7250   -2.3790   -3.2230 c2        1 7P0      0.073000
     21 C34         0.0360   -5.0460    0.4400 c3        1 7P0     -0.137000
     22 C38         3.8370   -1.6380   -2.8000 c1        1 7P0     -0.241000
     23 C35         1.1310   -4.1460    0.6090 c1        1 7P0     -0.139000
     24 C37         4.8290   -1.0570   -2.4570 c1        1 7P0     -0.069000
     25 C36         2.0620   -3.4060    0.7650 c1        1 7P0     -0.277000
     26 C1         -2.7620    3.9410   -8.3730 c2        1 7P0     -0.031000
     27 C2         -3.7040    2.8150   -8.0190 c3        1 7P0     -0.195000
     28 C3         -4.2540    2.2170   -9.2600 c1        1 7P0      0.034000
     29 C4         -2.8830    1.9620   -7.0840 c2        1 7P0     -0.158000
     30 C5         -1.6470    2.5040   -6.9010 c2        1 7P0     -0.064000
     31 C6         -1.5720    3.7470   -7.7160 c2        1 7P0     -0.152000
     32 N8         -0.4250    4.5950   -7.7030 n3        1 7P0     -0.119000
     33 C9          1.9930    7.5420   -8.6620 c1        1 7P0      0.488000
     34 N10         1.5680    6.4220   -8.8710 n2        1 7P0     -0.421000
     35 N11         1.3160    5.2190   -9.2750 n2        1 7P0      0.267000
     36 N12         0.3930    4.4880   -8.8030 n3        1 7P0      0.021000
     37 C13        -0.5480    2.0350   -6.0390 c3        1 7P0     -0.125000
     38 C14        -0.9390    0.7510   -5.2960 c3        1 7P0     -0.031000
     39 N15         0.0940    0.2530   -4.4230 n         1 7P0     -0.347000
     40 H23        -1.8680    0.1450   -0.2800 ha        1 7P0      0.142000
     41 H25         0.2490    0.6140    1.9930 ha        1 7P0      0.209000
     42 H24        -3.5770    0.5310    1.1820 ha        1 7P0      0.156000
     43 H28        -4.5720    1.0150    3.1990 hn        1 7P0      0.256000
     44 H30        -2.8570    1.3470    5.6570 h5        1 7P0      0.163000
     45 H40         1.1030   -0.1850    4.9050 ho        1 7P0      0.233000
     46 H19         0.2740   -6.0280    0.9310 hc        1 7P0      0.111000
     47 H17         1.1470   -1.8550   -0.5800 hn        1 7P0      0.267000
     48 H181        1.8680   -0.0350   -2.3180 hx        1 7P0      0.181000
     49 H182        0.6280   -2.6860   -3.4050 ha        1 7P0      0.163000
     50 H34        -0.1640   -5.2390   -0.6450 hc        1 7P0      0.111000
     51 H38         2.9680   -3.3250   -3.7550 ha        1 7P0      0.177000
     52 H35        -0.8950   -4.6380    0.9120 hc        1 7P0      0.111000
     53 H37         2.9230   -2.8150    0.9580 ha        1 7P0      0.234000
     54 H36         5.7110   -0.5430   -2.1510 ha        1 7P0      0.251000
     55 H2         -4.5910    3.2530   -7.4540 hc        1 7P0      0.213000
     56 H4         -3.2880    1.0510   -6.6380 ha        1 7P0      0.179000
     57 H9         -0.6840    5.5590   -7.5010 hn        1 7P0      0.243000
     58 H131        0.3730    3.5520   -9.2560 hn        1 7P0      0.342000
     59 H132       -0.2910    2.8430   -5.2990 hc        1 7P0      0.105000
     60 H141        0.3680    1.8520   -6.6650 hc        1 7P0      0.105000
     61 H142       -1.1810   -0.0470   -6.0580 h1        1 7P0      0.116000
     62 H15        -1.8680    0.9470   -4.6840 h1        1 7P0      0.116000
     63 CL7        -4.8070    0.6770   -9.2430 cl        1 7P0      0.072000
     64 H192       -0.3950   -1.2890   -0.9100 hn        1 7P0      0.267000
     65 H152        0.9890    0.0730   -4.8160 hn        1 7P0      0.244000
     66 H1         -3.0610    4.7310   -9.0680 ha        1 7P0      0.190000
@<TRIPOS>BOND
     1    1    2 1   
     2    1    3 1   
     3    1   15 1   
     4    3    4 1   
     5    3   41 1   
     6    4    5 1   
     7    4   40 1   
     8    5    6 1   
     9    5   42 1   
    10    6    7 1   
    11    6   13 1   
    12    7    8 1   
    13    7    9 1   
    14    9   10 1   
    15    9   14 1   
    16   11   12 1   
    17   11   13 1   
    18   11   44 1   
    19   13   43 1   
    20   14   45 1   
    21   15   16 1   
    22   15   47 1   
    23   15   64 1   
    24   16   17 1   
    25   16   19 1   
    26   16   48 1   
    27   17   18 1   
    28   17   39 1   
    29   19   20 1   
    30   19   49 1   
    31   20   22 1   
    32   20   51 1   
    33   21   23 1   
    34   21   46 1   
    35   21   50 1   
    36   21   52 1   
    37   22   24 1   
    38   23   25 1   
    39   24   54 1   
    40   25   53 1   
    41   26   27 1   
    42   26   31 1   
    43   26   66 1   
    44   27   28 1   
    45   27   29 1   
    46   27   55 1   
    47   28   63 1   
    48   29   30 1   
    49   29   56 1   
    50   30   31 1   
    51   30   37 1   
    52   31   32 1   
    53   32   36 1   
    54   32   57 1   
    55   33   34 1   
    56   34   35 1   
    57   35   36 1   
    58   36   58 1   
    59   37   38 1   
    60   37   59 1   
    61   37   60 1   
    62   38   39 1   
    63   38   61 1   
    64   38   62 1   
    65   39   65 1   
@<TRIPOS>SUBSTRUCTURE
     1 7P0         1 TEMP              0 ****  ****    0 ROOT
