@<TRIPOS>MOLECULE
7P9
   63    62     1     0     0
SMALL
bcc


@<TRIPOS>ATOM
      1 O1         -0.8090   -2.0300    1.4940 o         1 7P9     -0.914167
      2 O2          1.0730   -0.6750    2.6600 o         1 7P9     -0.914167
      3 P1          0.6360   -1.8650    1.8600 p5        1 7P9      1.316900
      4 O3          1.3500   -3.1640    2.1690 o         1 7P9     -0.914167
      5 O4          1.3280   -1.5380    0.2960 os        1 7P9     -0.562200
      6 C1          2.5940   -1.0340    0.3020 c3        1 7P9      0.230400
      7 C2          3.6320   -1.9740   -0.3750 c3        1 7P9      0.075100
      8 C3          3.6170   -3.3760    0.2330 c3        1 7P9      0.059400
      9 O5          3.5710   -4.4120   -0.7490 os        1 7P9     -0.444900
     10 C4          2.3560   -4.9020   -1.1590 c         1 7P9      0.664100
     11 O6          2.5120   -5.9090   -1.8730 o         1 7P9     -0.617000
     12 C5          1.0850   -4.2160   -0.8170 c3        1 7P9     -0.223400
     13 C6         -0.1410   -4.9760   -1.2650 c3        1 7P9     -0.039400
     14 C7         -1.3720   -4.1040   -1.1250 c3        1 7P9     -0.114400
     15 C8         -2.6420   -4.9120   -1.2730 c3        1 7P9     -0.061400
     16 C9         -3.8630   -4.0300   -1.1140 c3        1 7P9     -0.089400
     17 C10        -5.1420   -4.8250   -1.1810 c3        1 7P9     -0.084100
     18 O7          3.2810   -2.0550   -1.7750 os        1 7P9     -0.391900
     19 C12         4.2510   -1.9520   -2.7070 c         1 7P9      0.639100
     20 O8          5.4130   -1.6450   -2.4090 o         1 7P9     -0.602000
     21 C13         3.7270   -2.2380   -4.0880 c3        1 7P9     -0.140400
     22 C14         4.5440   -1.5320   -5.1470 c3        1 7P9     -0.074400
     23 C11         5.6170   -0.6100  -12.5090 c3        1 7P9     -0.090100
     24 C15         4.0960   -1.9360   -6.5350 c3        1 7P9     -0.079400
     25 C16         4.9000   -1.2210   -7.6000 c3        1 7P9     -0.077400
     26 C17         4.4580   -1.6270   -8.9890 c3        1 7P9     -0.079400
     27 C18         5.2610   -0.9130  -10.0550 c3        1 7P9     -0.078400
     28 C19         4.8200   -1.3190  -11.4450 c3        1 7P9     -0.081400
     29 H11C        2.9570   -0.8520    1.3550 h1        1 7P9      0.006700
     30 H12C        2.6310   -0.0650   -0.2790 h1        1 7P9      0.006700
     31 HA          4.6530   -1.5170   -0.2740 h1        1 7P9      0.037700
     32 H31C        2.7590   -3.4490    0.9890 h1        1 7P9      0.112700
     33 H32C        4.5980   -3.5700    0.7480 h1        1 7P9      0.112700
     34 H51C        1.1210   -3.1890   -1.2890 hc        1 7P9      0.156200
     35 H52C        1.0160   -3.9990    0.3070 hc        1 7P9      0.156200
     36 H61C       -0.0230   -5.3150   -2.3290 hc        1 7P9      0.013700
     37 H62C       -0.2540   -5.9010   -0.6400 hc        1 7P9      0.013700
     38 H71C       -1.3590   -3.5750   -0.1230 hc        1 7P9      0.091200
     39 H72C       -1.3470   -3.2990   -1.9060 hc        1 7P9      0.091200
     40 H81C       -2.6640   -5.7210   -0.4960 hc        1 7P9      0.012700
     41 H82C       -2.6680   -5.4180   -2.2750 hc        1 7P9      0.012700
     42 H91C       -3.8640   -3.2480   -1.9180 hc        1 7P9      0.054200
     43 H92C       -3.7950   -3.4900   -0.1320 hc        1 7P9      0.054200
     44 H101       -5.2270   -5.3600   -2.1580 hc        1 7P9      0.013033
     45 H102       -5.1740   -5.5860   -0.3640 hc        1 7P9      0.013033
     46 H103       -6.0270   -4.1540   -1.0700 hc        1 7P9      0.013033
     47 H131        3.7670   -3.3510   -4.2320 hc        1 7P9      0.079200
     48 H132        2.6500   -1.9280   -4.1440 hc        1 7P9      0.079200
     49 H141        5.6290   -1.7790   -5.0040 hc        1 7P9      0.048700
     50 H142        4.4400   -0.4220   -5.0220 hc        1 7P9      0.048700
     51 H151        3.0070   -1.6990   -6.6630 hc        1 7P9      0.039700
     52 H152        4.2090   -3.0450   -6.6590 hc        1 7P9      0.039700
     53 H161        5.9890   -1.4550   -7.4680 hc        1 7P9      0.037700
     54 H162        4.7840   -0.1120   -7.4770 hc        1 7P9      0.037700
     55 H171        3.3690   -1.3940   -9.1200 hc        1 7P9      0.038700
     56 H172        4.5740   -2.7370   -9.1110 hc        1 7P9      0.038700
     57 H111        5.4950    0.4960  -12.4210 hc        1 7P9      0.027033
     58 H112        6.7040   -0.8500  -12.4120 hc        1 7P9      0.027033
     59 H113        5.2760   -0.9230  -13.5250 hc        1 7P9      0.027033
     60 H191        4.9360   -2.4290  -11.5630 hc        1 7P9      0.037200
     61 H192        3.7300   -1.0860  -11.5730 hc        1 7P9      0.037200
     62 H181        5.1450    0.1960   -9.9330 hc        1 7P9      0.037200
     63 H182        6.3510   -1.1470   -9.9230 hc        1 7P9      0.037200
@<TRIPOS>BOND
     1    1    3 1   
     2    2    3 1   
     3    3    4 1   
     4    3    5 1   
     5    5    6 1   
     6    6    7 1   
     7    6   29 1   
     8    6   30 1   
     9    7    8 1   
    10    7   18 1   
    11    7   31 1   
    12    8    9 1   
    13    8   32 1   
    14    8   33 1   
    15    9   10 1   
    16   10   11 2   
    17   10   12 1   
    18   12   13 1   
    19   12   34 1   
    20   12   35 1   
    21   13   14 1   
    22   13   36 1   
    23   13   37 1   
    24   14   15 1   
    25   14   38 1   
    26   14   39 1   
    27   15   16 1   
    28   15   40 1   
    29   15   41 1   
    30   16   17 1   
    31   16   42 1   
    32   16   43 1   
    33   17   44 1   
    34   17   45 1   
    35   17   46 1   
    36   18   19 1   
    37   19   20 2   
    38   19   21 1   
    39   21   22 1   
    40   21   47 1   
    41   21   48 1   
    42   22   24 1   
    43   22   49 1   
    44   22   50 1   
    45   23   28 1   
    46   23   57 1   
    47   23   58 1   
    48   23   59 1   
    49   24   25 1   
    50   24   51 1   
    51   24   52 1   
    52   25   26 1   
    53   25   53 1   
    54   25   54 1   
    55   26   27 1   
    56   26   55 1   
    57   26   56 1   
    58   27   28 1   
    59   27   62 1   
    60   27   63 1   
    61   28   60 1   
    62   28   61 1   
@<TRIPOS>SUBSTRUCTURE
     1 7P9         1 TEMP              0 ****  ****    0 ROOT
