@<TRIPOS>MOLECULE
7P9
   63    62     1     0     0
SMALL
bcc


@<TRIPOS>ATOM
      1 O1         -0.7850   -1.9970    1.5000 o         1 7P9     -0.914167
      2 O2          1.1070   -0.6450    2.6530 o         1 7P9     -0.914167
      3 P1          0.6620   -1.8370    1.8610 p5        1 7P9      1.316900
      4 O3          1.3720   -3.1370    2.1740 o         1 7P9     -0.914167
      5 O4          1.3510   -1.5200    0.2930 os        1 7P9     -0.562200
      6 C1          2.6190   -1.0220    0.2920 c3        1 7P9      0.230400
      7 C2          3.6500   -1.9700   -0.3830 c3        1 7P9      0.075100
      8 C3          3.6320   -3.3690    0.2330 c3        1 7P9      0.059400
      9 O5          3.5790   -4.4100   -0.7440 os        1 7P9     -0.444900
     10 C4          2.3600   -4.8960   -1.1480 c         1 7P9      0.664100
     11 O6          2.5090   -5.9090   -1.8550 o         1 7P9     -0.617000
     12 C5          1.0930   -4.2030   -0.8050 c3        1 7P9     -0.223400
     13 C6         -0.1380   -4.9600   -1.2460 c3        1 7P9     -0.039400
     14 C7         -1.3640   -4.0820   -1.1070 c3        1 7P9     -0.114400
     15 C8         -2.6390   -4.8850   -1.2480 c3        1 7P9     -0.061400
     16 C9         -3.8550   -3.9970   -1.0910 c3        1 7P9     -0.089400
     17 C10        -5.1370   -4.7850   -1.1510 c3        1 7P9     -0.084100
     18 O7          3.2950   -2.0580   -1.7810 os        1 7P9     -0.391900
     19 C12         4.2610   -1.9620   -2.7180 c         1 7P9      0.639100
     20 O8          5.4250   -1.6560   -2.4250 o         1 7P9     -0.602000
     21 C13         3.7300   -2.2520   -4.0950 c3        1 7P9     -0.140400
     22 C14         4.5420   -1.5500   -5.1600 c3        1 7P9     -0.074400
     23 C11         5.5790   -0.6490  -12.5300 c3        1 7P9     -0.090100
     24 C15         4.0880   -1.9580   -6.5450 c3        1 7P9     -0.079400
     25 C16         4.8860   -1.2460   -7.6160 c3        1 7P9     -0.077400
     26 C17         4.4380   -1.6570   -9.0020 c3        1 7P9     -0.079400
     27 C18         5.2350   -0.9450  -10.0730 c3        1 7P9     -0.078400
     28 C19         4.7870   -1.3550  -11.4600 c3        1 7P9     -0.081400
     29 H11C        2.9860   -0.8360    1.3440 h1        1 7P9      0.006700
     30 H12C        2.6590   -0.0560   -0.2940 h1        1 7P9      0.006700
     31 HA          4.6740   -1.5170   -0.2880 h1        1 7P9      0.037700
     32 H31C        2.7760   -3.4340    0.9920 h1        1 7P9      0.112700
     33 H32C        4.6130   -3.5640    0.7460 h1        1 7P9      0.112700
     34 H51C        1.0280   -3.9800    0.3180 hc        1 7P9      0.156200
     35 H52C        1.1330   -3.1790   -1.2820 hc        1 7P9      0.156200
     36 H61C       -0.0240   -5.3050   -2.3080 hc        1 7P9      0.013700
     37 H62C       -0.2530   -5.8810   -0.6150 hc        1 7P9      0.013700
     38 H71C       -1.3470   -3.5480   -0.1070 hc        1 7P9      0.091200
     39 H72C       -1.3370   -3.2810   -1.8920 hc        1 7P9      0.091200
     40 H81C       -2.6620   -5.6900   -0.4670 hc        1 7P9      0.012700
     41 H82C       -2.6690   -5.3950   -2.2470 hc        1 7P9      0.012700
     42 H91C       -3.7820   -3.4520   -0.1120 hc        1 7P9      0.054200
     43 H92C       -3.8540   -3.2180   -1.8990 hc        1 7P9      0.054200
     44 H101       -6.0190   -4.1090   -1.0420 hc        1 7P9      0.013033
     45 H102       -5.1710   -5.5420   -0.3310 hc        1 7P9      0.013033
     46 H103       -5.2270   -5.3250   -2.1260 hc        1 7P9      0.013033
     47 H131        3.7710   -3.3660   -4.2350 hc        1 7P9      0.079200
     48 H132        2.6530   -1.9430   -4.1470 hc        1 7P9      0.079200
     49 H141        4.4390   -0.4400   -5.0380 hc        1 7P9      0.048700
     50 H142        5.6280   -1.7950   -5.0210 hc        1 7P9      0.048700
     51 H151        4.2020   -3.0680   -6.6650 hc        1 7P9      0.039700
     52 H152        2.9980   -1.7230   -6.6680 hc        1 7P9      0.039700
     53 H161        4.7700   -0.1370   -7.4960 hc        1 7P9      0.037700
     54 H162        5.9760   -1.4790   -7.4880 hc        1 7P9      0.037700
     55 H171        3.3470   -1.4250   -9.1270 hc        1 7P9      0.038700
     56 H172        4.5540   -2.7670   -9.1200 hc        1 7P9      0.038700
     57 H111        5.4560    0.4580  -12.4450 hc        1 7P9      0.027033
     58 H112        6.6660   -0.8870  -12.4380 hc        1 7P9      0.027033
     59 H113        5.2330   -0.9660  -13.5440 hc        1 7P9      0.027033
     60 H191        3.6960   -1.1240  -11.5830 hc        1 7P9      0.037200
     61 H192        4.9030   -2.4660  -11.5760 hc        1 7P9      0.037200
     62 H181        6.3260   -1.1770   -9.9470 hc        1 7P9      0.037200
     63 H182        5.1180    0.1640   -9.9540 hc        1 7P9      0.037200
@<TRIPOS>BOND
     1    1    3 1   
     2    2    3 1   
     3    3    4 1   
     4    3    5 1   
     5    5    6 1   
     6    6    7 1   
     7    6   29 1   
     8    6   30 1   
     9    7    8 1   
    10    7   18 1   
    11    7   31 1   
    12    8    9 1   
    13    8   32 1   
    14    8   33 1   
    15    9   10 1   
    16   10   11 2   
    17   10   12 1   
    18   12   13 1   
    19   12   34 1   
    20   12   35 1   
    21   13   14 1   
    22   13   36 1   
    23   13   37 1   
    24   14   15 1   
    25   14   38 1   
    26   14   39 1   
    27   15   16 1   
    28   15   40 1   
    29   15   41 1   
    30   16   17 1   
    31   16   42 1   
    32   16   43 1   
    33   17   44 1   
    34   17   45 1   
    35   17   46 1   
    36   18   19 1   
    37   19   20 2   
    38   19   21 1   
    39   21   22 1   
    40   21   47 1   
    41   21   48 1   
    42   22   24 1   
    43   22   49 1   
    44   22   50 1   
    45   23   28 1   
    46   23   57 1   
    47   23   58 1   
    48   23   59 1   
    49   24   25 1   
    50   24   51 1   
    51   24   52 1   
    52   25   26 1   
    53   25   53 1   
    54   25   54 1   
    55   26   27 1   
    56   26   55 1   
    57   26   56 1   
    58   27   28 1   
    59   27   62 1   
    60   27   63 1   
    61   28   60 1   
    62   28   61 1   
@<TRIPOS>SUBSTRUCTURE
     1 7P9         1 TEMP              0 ****  ****    0 ROOT
