@<TRIPOS>MOLECULE
7PA
   17    16     1     0     0
SMALL
bcc


@<TRIPOS>ATOM
      1 O1          0.1670    0.4750   -0.2210 o         1 7PA     -0.981167
      2 O2          2.4140    1.0480   -1.2070 o         1 7PA     -0.981167
      3 C1          2.2620   -4.0070   -0.6130 c3        1 7PA     -0.264600
      4 C2          1.6780   -2.7850    0.0950 c3        1 7PA      0.045600
      5 P1          2.0970   -5.8060   -0.2550 p5        1 7PA      1.219700
      6 C3          2.0830   -1.4630   -0.5570 c3        1 7PA     -0.264600
      7 P2          1.6700    0.2780   -0.1210 p5        1 7PA      1.219700
      8 O3          2.6740   -6.0960    1.1200 o         1 7PA     -0.981167
      9 O4          2.9490   -6.4150   -1.3640 o         1 7PA     -0.981167
     10 O5          2.2170    0.5880    1.2620 o         1 7PA     -0.981167
     11 O6          0.6380   -6.2080   -0.3820 o         1 7PA     -0.981167
     12 H11         1.9280   -3.9520   -1.6790 hc        1 7PA     -0.011300
     13 H12         3.3730   -3.8740   -0.6230 hc        1 7PA     -0.011300
     14 H21         0.5570   -2.8640    0.1040 hc        1 7PA     -0.010300
     15 H22         2.0130   -2.7850    1.1680 hc        1 7PA     -0.010300
     16 H31         3.2010   -1.4390   -0.5700 hc        1 7PA     -0.011300
     17 H32         1.7560   -1.5170   -1.6260 hc        1 7PA     -0.011300
@<TRIPOS>BOND
     1    1    7 1   
     2    2    7 1   
     3    3    4 1   
     4    3    5 1   
     5    3   12 1   
     6    3   13 1   
     7    4    6 1   
     8    4   14 1   
     9    4   15 1   
    10    5    8 1   
    11    5    9 1   
    12    5   11 1   
    13    6    7 1   
    14    6   16 1   
    15    6   17 1   
    16    7   10 1   
@<TRIPOS>SUBSTRUCTURE
     1 7PA         1 TEMP              0 ****  ****    0 ROOT
