@<TRIPOS>MOLECULE
7PA
   17    16     1     0     0
SMALL
bcc


@<TRIPOS>ATOM
      1 O1         -1.1190    1.8040    2.6340 o         1 7PA     -0.981167
      2 O2         -2.8060    0.0830    3.3690 o         1 7PA     -0.981167
      3 C1         -0.4950   -1.7370   -0.7870 c3        1 7PA     -0.264600
      4 C2         -0.8810   -0.3640   -0.2390 c3        1 7PA      0.045600
      5 P1          0.3600   -2.2230   -2.3450 p5        1 7PA      1.219700
      6 C3         -1.5890   -0.4340    1.1130 c3        1 7PA     -0.264600
      7 P2         -2.2560    0.8950    2.2010 p5        1 7PA      1.219700
      8 O3         -0.4740   -1.7760   -3.5330 o         1 7PA     -0.981167
      9 O4          0.3880   -3.7420   -2.2140 o         1 7PA     -0.981167
     10 O5         -3.3580    1.6360    1.4630 o         1 7PA     -0.981167
     11 O6          1.7600   -1.6330   -2.3480 o         1 7PA     -0.981167
     12 H11         0.1430   -2.2270   -0.0100 hc        1 7PA     -0.011300
     13 H12        -1.4380   -2.3380   -0.8450 hc        1 7PA     -0.011300
     14 H21        -1.5490    0.1550   -0.9800 hc        1 7PA     -0.010300
     15 H22         0.0440    0.2670   -0.1390 hc        1 7PA     -0.010300
     16 H31        -0.9030   -0.9790    1.8090 hc        1 7PA     -0.011300
     17 H32        -2.4850   -1.0900    0.9750 hc        1 7PA     -0.011300
@<TRIPOS>BOND
     1    1    7 1   
     2    2    7 1   
     3    3    4 1   
     4    3    5 1   
     5    3   12 1   
     6    3   13 1   
     7    4    6 1   
     8    4   14 1   
     9    4   15 1   
    10    5    8 1   
    11    5    9 1   
    12    5   11 1   
    13    6    7 1   
    14    6   16 1   
    15    6   17 1   
    16    7   10 1   
@<TRIPOS>SUBSTRUCTURE
     1 7PA         1 TEMP              0 ****  ****    0 ROOT
