@<TRIPOS>MOLECULE
7PA
   17    16     1     0     0
SMALL
bcc


@<TRIPOS>ATOM
      1 O1          0.1320    0.4500   -0.1840 o         1 7PA     -0.981500
      2 O2          2.3430    1.0490   -1.2350 o         1 7PA     -0.981500
      3 C1          2.2740   -4.0050   -0.6120 c3        1 7PA     -0.265600
      4 C2          1.6800   -2.7870    0.0960 c3        1 7PA      0.045600
      5 P1          2.1290   -5.8050   -0.2510 p5        1 7PA      1.219700
      6 C3          2.0690   -1.4620   -0.5590 c3        1 7PA     -0.265600
      7 P2          1.6390    0.2750   -0.1240 p5        1 7PA      1.219700
      8 O3          2.6860   -6.0850    1.1340 o         1 7PA     -0.981500
      9 O4          3.0060   -6.4050   -1.3450 o         1 7PA     -0.981500
     10 O5          2.2200    0.6010    1.2420 o         1 7PA     -0.981500
     11 O6          0.6770   -6.2250   -0.4010 o         1 7PA     -0.981500
     12 H11         1.9370   -3.9550   -1.6770 hc        1 7PA     -0.011300
     13 H12         3.3830   -3.8600   -0.6250 hc        1 7PA     -0.011300
     14 H21         0.5590   -2.8780    0.1080 hc        1 7PA     -0.010300
     15 H22         2.0170   -2.7820    1.1680 hc        1 7PA     -0.010300
     16 H31         3.1870   -1.4260   -0.5760 hc        1 7PA     -0.011300
     17 H32         1.7400   -1.5220   -1.6270 hc        1 7PA     -0.011300
@<TRIPOS>BOND
     1    1    7 1   
     2    2    7 1   
     3    3    4 1   
     4    3    5 1   
     5    3   12 1   
     6    3   13 1   
     7    4    6 1   
     8    4   14 1   
     9    4   15 1   
    10    5    8 1   
    11    5    9 1   
    12    5   11 1   
    13    6    7 1   
    14    6   16 1   
    15    6   17 1   
    16    7   10 1   
@<TRIPOS>SUBSTRUCTURE
     1 7PA         1 TEMP              0 ****  ****    0 ROOT
