@<TRIPOS>MOLECULE
7PA
   17    16     1     0     0
SMALL
bcc


@<TRIPOS>ATOM
      1 O1         -1.7210    2.7180    0.2970 o         1 7PA     -0.981167
      2 O2          0.2930    3.9510   -0.4140 o         1 7PA     -0.981167
      3 C1          0.3940   -1.2350   -0.5590 c3        1 7PA     -0.264600
      4 C2         -0.1100    0.0000    0.1550 c3        1 7PA      0.045600
      5 P1         -0.2090   -2.7180    0.2980 p5        1 7PA      1.219700
      6 C3          0.3940    1.2350   -0.5580 c3        1 7PA     -0.264600
      7 P2         -0.2110    2.7180    0.2970 p5        1 7PA      1.219700
      8 O3          0.2920   -3.9510   -0.4150 o         1 7PA     -0.981167
      9 O4         -1.7190   -2.7180    0.3020 o         1 7PA     -0.981167
     10 O5          0.2930    2.7180    1.7210 o         1 7PA     -0.981167
     11 O6          0.2970   -2.7180    1.7210 o         1 7PA     -0.981167
     12 H11         0.0670   -1.2360   -1.4790 hc        1 7PA     -0.011300
     13 H12         1.3700   -1.2350   -0.5610 hc        1 7PA     -0.011300
     14 H21         0.2170   -0.0000    1.0750 hc        1 7PA     -0.010300
     15 H22        -1.0860    0.0000    0.1560 hc        1 7PA     -0.010300
     16 H31         0.0690    1.2350   -1.4790 hc        1 7PA     -0.011300
     17 H32         1.3710    1.2350   -0.5590 hc        1 7PA     -0.011300
@<TRIPOS>BOND
     1    1    7 1   
     2    2    7 1   
     3    3    4 1   
     4    3    5 1   
     5    3   12 1   
     6    3   13 1   
     7    4    6 1   
     8    4   14 1   
     9    4   15 1   
    10    5    8 1   
    11    5    9 1   
    12    5   11 1   
    13    6    7 1   
    14    6   16 1   
    15    6   17 1   
    16    7   10 1   
@<TRIPOS>SUBSTRUCTURE
     1 7PA         1 TEMP              0 ****  ****    0 ROOT
