@<TRIPOS>MOLECULE
7PC
   39    41     1     0     0
SMALL
bcc


@<TRIPOS>ATOM
      1 Cl2         0.2580    0.7620   -0.1100 cl        1 7PC     -0.020400
      2 C15         1.8920    0.3450   -0.0030 ca        1 7PC     -0.019600
      3 C16         2.4740    0.2170    1.2560 ca        1 7PC     -0.074000
      4 C14         2.6910    0.1260   -1.1560 ca        1 7PC      0.207100
      5 C19         4.0490   -0.2100   -1.0170 ca        1 7PC     -0.182000
      6 C22         4.6090   -0.3380    0.2450 ca        1 7PC     -0.055000
      7 C17         3.8250   -0.1320    1.3880 ca        1 7PC     -0.246300
      8 C29         4.4250   -0.2450    2.7390 c3        1 7PC      0.188100
      9 N30         4.1870   -1.6190    3.3080 nz        1 7PC     -0.848600
     10 O13         2.0610    0.2640   -2.3680 os        1 7PC     -0.196200
     11 C2          2.8360    0.0670   -3.5160 ca        1 7PC      0.015100
     12 C1          3.0580   -1.2280   -4.0220 ca        1 7PC      0.122100
     13 O22         2.6710   -2.2910   -3.2420 oh        1 7PC     -0.497100
     14 C6          3.6820   -1.3890   -5.2680 ca        1 7PC     -0.170000
     15 C5          4.0800   -0.2630   -5.9940 cp        1 7PC     -0.074500
     16 C4          3.8600    1.0240   -5.4770 ca        1 7PC     -0.142000
     17 C3          3.2420    1.1920   -4.2430 ca        1 7PC     -0.087000
     18 C7          4.7310   -0.4200   -7.3090 cp        1 7PC      0.429800
     19 N23         5.6570   -1.4060   -7.4620 nb        1 7PC     -0.661000
     20 C24         6.2390   -1.5260   -8.6650 ca        1 7PC      0.399200
     21 C25         5.9450   -0.6980   -9.7680 ca        1 7PC     -0.228300
     22 C26         4.9920    0.3040   -9.6020 ca        1 7PC     -0.089000
     23 C27         4.3730    0.4530   -8.3580 ca        1 7PC     -0.223300
     24 H16         1.8630    0.4080    2.1540 ha        1 7PC      0.147000
     25 H19         4.6600   -0.3770   -1.9200 ha        1 7PC      0.177000
     26 H22         5.6780   -0.5890    0.3410 ha        1 7PC      0.142000
     27 H291        5.5410   -0.0830    2.7080 hx        1 7PC      0.110200
     28 H292        3.9640    0.4960    3.4550 hx        1 7PC      0.110200
     29 H301        4.5850   -1.6930    4.2470 hn        1 7PC      0.455800
     30 H302        3.1790   -1.8040    3.3500 hn        1 7PC      0.455800
     31 HO22        2.7410   -3.0960   -3.7800 ho        1 7PC      0.436000
     32 H6          3.8550   -2.4010   -5.6660 ha        1 7PC      0.165000
     33 H4          4.1840    1.9070   -6.0500 ha        1 7PC      0.155000
     34 H3          3.0520    2.1980   -3.8390 ha        1 7PC      0.159000
     35 H24         6.9890   -2.3350   -8.7510 h4        1 7PC      0.030100
     36 H25         6.4570   -0.8490  -10.7270 ha        1 7PC      0.155000
     37 H26         4.7260    0.9700  -10.4370 ha        1 7PC      0.150000
     38 H27         3.6110    1.2290   -8.2000 ha        1 7PC      0.149000
     39 H303        4.6150   -2.3250    2.7010 hn        1 7PC      0.455800
@<TRIPOS>BOND
     1    1    2 1   
     2    2    3 ar  
     3    2    4 ar  
     4    3    7 ar  
     5    3   24 1   
     6    4    5 ar  
     7    4   10 1   
     8    5    6 ar  
     9    5   25 1   
    10    6    7 ar  
    11    6   26 1   
    12    7    8 1   
    13    8    9 1   
    14    8   27 1   
    15    8   28 1   
    16    9   29 1   
    17    9   30 1   
    18    9   39 1   
    19   10   11 1   
    20   11   12 ar  
    21   11   17 ar  
    22   12   13 1   
    23   12   14 ar  
    24   13   31 1   
    25   14   15 ar  
    26   14   32 1   
    27   15   16 ar  
    28   15   18 1   
    29   16   17 ar  
    30   16   33 1   
    31   17   34 1   
    32   18   19 ar  
    33   18   23 ar  
    34   19   20 ar  
    35   20   21 ar  
    36   20   35 1   
    37   21   22 ar  
    38   21   36 1   
    39   22   23 ar  
    40   22   37 1   
    41   23   38 1   
@<TRIPOS>SUBSTRUCTURE
     1 7PC         1 TEMP              0 ****  ****    0 ROOT
