@<TRIPOS>MOLECULE
7PC
   39    41     1     0     0
SMALL
bcc


@<TRIPOS>ATOM
      1 CL2         0.2400    0.7050   -0.1110 cl        1 7PC     -0.020400
      2 C15         1.8830    0.3210   -0.0050 ca        1 7PC     -0.019600
      3 C16         2.4690    0.2120    1.2540 ca        1 7PC     -0.074000
      4 C14         2.6840    0.1110   -1.1570 ca        1 7PC      0.207100
      5 C19         4.0480   -0.1960   -1.0180 ca        1 7PC     -0.182000
      6 C22         4.6130   -0.3060    0.2440 ca        1 7PC     -0.055000
      7 C17         3.8260   -0.1090    1.3860 ca        1 7PC     -0.246300
      8 C29         4.4310   -0.2020    2.7370 c3        1 7PC      0.188100
      9 N30         4.2200   -1.5770    3.3150 n4        1 7PC     -0.848600
     10 O13         2.0490    0.2290   -2.3690 os        1 7PC     -0.196200
     11 C2          2.8260    0.0410   -3.5170 ca        1 7PC      0.015100
     12 C1          3.0730   -1.2520   -4.0160 ca        1 7PC      0.123100
     13 O22         2.7080   -2.3180   -3.2290 oh        1 7PC     -0.497100
     14 C6          3.6980   -1.4080   -5.2610 ca        1 7PC     -0.170000
     15 C5          4.0730   -0.2790   -5.9950 cp        1 7PC     -0.074500
     16 C4          3.8290    1.0060   -5.4860 ca        1 7PC     -0.142000
     17 C3          3.2090    1.1700   -4.2520 ca        1 7PC     -0.087000
     18 C7          4.7250   -0.4310   -7.3100 cp        1 7PC      0.429800
     19 N23         5.6690   -1.4000   -7.4600 nb        1 7PC     -0.661000
     20 C24         6.2520   -1.5160   -8.6630 ca        1 7PC      0.399200
     21 C25         5.9390   -0.7010   -9.7690 ca        1 7PC     -0.228300
     22 C26         4.9670    0.2840   -9.6080 ca        1 7PC     -0.089000
     23 C27         4.3480    0.4290   -8.3640 ca        1 7PC     -0.223300
     24 H16         1.8550    0.3960    2.1520 ha        1 7PC      0.147000
     25 H19         4.6610   -0.3560   -1.9210 ha        1 7PC      0.177000
     26 H22         5.6860   -0.5350    0.3390 ha        1 7PC      0.142000
     27 H291        5.5430   -0.0180    2.7030 hx        1 7PC      0.110200
     28 H292        3.9560    0.5340    3.4490 hx        1 7PC      0.110200
     29 H301        4.6210   -1.6370    4.2540 hn        1 7PC      0.455800
     30 H302        4.6620   -2.2770    2.7120 hn        1 7PC      0.455800
     31 HO22        2.7940   -3.1240   -3.7620 ho        1 7PC      0.436000
     32 H6          3.8900   -2.4190   -5.6540 ha        1 7PC      0.165000
     33 H4          4.1340    1.8920   -6.0640 ha        1 7PC      0.155000
     34 H3          3.0010    2.1740   -3.8530 ha        1 7PC      0.159000
     35 H24         7.0160   -2.3110   -8.7460 h4        1 7PC      0.030100
     36 H25         6.4530   -0.8470  -10.7290 ha        1 7PC      0.155000
     37 H26         4.6880    0.9400  -10.4460 ha        1 7PC      0.150000
     38 H27         3.5720    1.1910   -8.2090 ha        1 7PC      0.149000
     39 H303        3.2160   -1.7800    3.3600 hn        1 7PC      0.455800
@<TRIPOS>BOND
     1    1    2 1   
     2    2    3 ar  
     3    2    4 ar  
     4    3    7 ar  
     5    3   24 1   
     6    4    5 ar  
     7    4   10 1   
     8    5    6 ar  
     9    5   25 1   
    10    6    7 ar  
    11    6   26 1   
    12    7    8 1   
    13    8    9 1   
    14    8   27 1   
    15    8   28 1   
    16    9   29 1   
    17    9   30 1   
    18    9   39 1   
    19   10   11 1   
    20   11   12 ar  
    21   11   17 ar  
    22   12   13 1   
    23   12   14 ar  
    24   13   31 1   
    25   14   15 ar  
    26   14   32 1   
    27   15   16 ar  
    28   15   18 1   
    29   16   17 ar  
    30   16   33 1   
    31   17   34 1   
    32   18   19 ar  
    33   18   23 ar  
    34   19   20 ar  
    35   20   21 ar  
    36   20   35 1   
    37   21   22 ar  
    38   21   36 1   
    39   22   23 ar  
    40   22   37 1   
    41   23   38 1   
@<TRIPOS>SUBSTRUCTURE
     1 7PC         1 TEMP              0 ****  ****    0 ROOT
