@<TRIPOS>MOLECULE
7PC
   38    40     1     0     0
SMALL
bcc


@<TRIPOS>ATOM
      1 CL2        -3.6380   -2.3040   -0.3030 cl        1 7PC     -0.068400
      2 C15        -3.3120   -0.6420   -0.1940 ca        1 7PC     -0.005600
      3 C16        -4.3430    0.2670   -0.4550 ca        1 7PC     -0.085000
      4 C14        -2.0390   -0.1520    0.1560 ca        1 7PC      0.112100
      5 C19        -1.8080    1.2270    0.2330 ca        1 7PC     -0.172000
      6 C22        -2.8440    2.1170   -0.0310 ca        1 7PC     -0.100000
      7 C17        -4.1140    1.6430   -0.3760 ca        1 7PC     -0.106300
      8 C29        -5.2130    2.6140   -0.6940 c3        1 7PC      0.207100
      9 N30        -6.4660    2.3100   -0.0430 n3        1 7PC     -0.917800
     10 O13        -1.0650   -1.0920    0.4820 os        1 7PC     -0.248200
     11 C2          0.2580   -0.6870    0.3040 ca        1 7PC      0.007100
     12 C1          1.1160   -0.8320    1.4120 ca        1 7PC      0.126100
     13 O22         0.6810   -1.2500    2.6440 oh        1 7PC     -0.489100
     14 C6          2.4860   -0.5570    1.2730 ca        1 7PC     -0.113000
     15 C5          2.9800   -0.1470    0.0320 cp        1 7PC     -0.116500
     16 C4          2.1160   -0.0040   -1.0650 ca        1 7PC     -0.141000
     17 C3          0.7580   -0.2740   -0.9340 ca        1 7PC     -0.114000
     18 C7          4.4180    0.1310   -0.1400 cp        1 7PC      0.453800
     19 N23         5.0770    0.8180    0.8310 nb        1 7PC     -0.655000
     20 C24         6.3850    1.0570    0.6440 ca        1 7PC      0.397200
     21 C25         7.1070    0.6380   -0.4900 ca        1 7PC     -0.244300
     22 C26         6.4260   -0.0690   -1.4790 ca        1 7PC     -0.093000
     23 C27         5.0650   -0.3300   -1.3100 ca        1 7PC     -0.233300
     24 H16        -5.3440   -0.1060   -0.7280 ha        1 7PC      0.167000
     25 H19        -0.8060    1.5970    0.5000 ha        1 7PC      0.155000
     26 H22        -2.6560    3.2000    0.0340 ha        1 7PC      0.139000
     27 H291       -4.8470    3.6590   -0.4550 h1        1 7PC      0.035700
     28 H292       -5.4000    2.5800   -1.8080 h1        1 7PC      0.035700
     29 H301       -6.3370    2.1360    0.9330 hn        1 7PC      0.354800
     30 H302       -7.1110    3.0640   -0.1660 hn        1 7PC      0.354800
     31 HO22       -0.2750   -1.4130    2.5830 ho        1 7PC      0.438000
     32 H6          3.1460   -0.6640    2.1470 ha        1 7PC      0.171000
     33 H4          2.5130    0.3290   -2.0360 ha        1 7PC      0.141000
     34 H3          0.0730   -0.1630   -1.7870 ha        1 7PC      0.151000
     35 H24         6.8830    1.6200    1.4540 h4        1 7PC      0.024100
     36 H25         8.1770    0.8660   -0.5840 ha        1 7PC      0.145000
     37 H26         6.9500   -0.4210   -2.3790 ha        1 7PC      0.140000
     38 H27         4.5010   -0.8920   -2.0660 ha        1 7PC      0.148000
@<TRIPOS>BOND
     1    1    2 1   
     2    2    3 ar  
     3    2    4 ar  
     4    3    7 ar  
     5    3   24 1   
     6    4    5 ar  
     7    4   10 1   
     8    5    6 ar  
     9    5   25 1   
    10    6    7 ar  
    11    6   26 1   
    12    7    8 1   
    13    8    9 1   
    14    8   27 1   
    15    8   28 1   
    16    9   29 1   
    17    9   30 1   
    18   10   11 1   
    19   11   12 ar  
    20   11   17 ar  
    21   12   13 1   
    22   12   14 ar  
    23   13   31 1   
    24   14   15 ar  
    25   14   32 1   
    26   15   16 ar  
    27   15   18 1   
    28   16   17 ar  
    29   16   33 1   
    30   17   34 1   
    31   18   19 ar  
    32   18   23 ar  
    33   19   20 ar  
    34   20   21 ar  
    35   20   35 1   
    36   21   22 ar  
    37   21   36 1   
    38   22   23 ar  
    39   22   37 1   
    40   23   38 1   
@<TRIPOS>SUBSTRUCTURE
     1 7PC         1 TEMP              0 ****  ****    0 ROOT
