@<TRIPOS>MOLECULE
7PC
   39    41     1     0     0
SMALL
bcc


@<TRIPOS>ATOM
      1 CL2         0.2400    0.6990   -0.1090 cl        1 7PC     -0.020400
      2 C15         1.8830    0.3190   -0.0030 ca        1 7PC     -0.019600
      3 C16         2.4710    0.2120    1.2550 ca        1 7PC     -0.074000
      4 C14         2.6840    0.1090   -1.1560 ca        1 7PC      0.207100
      5 C19         4.0500   -0.1950   -1.0180 ca        1 7PC     -0.182000
      6 C22         4.6150   -0.3020    0.2440 ca        1 7PC     -0.055000
      7 C17         3.8290   -0.1050    1.3860 ca        1 7PC     -0.246300
      8 C29         4.4350   -0.1950    2.7370 c3        1 7PC      0.188100
      9 N30         4.2280   -1.5700    3.3170 n4        1 7PC     -0.848600
     10 O13         2.0480    0.2240   -2.3680 os        1 7PC     -0.196200
     11 C2          2.8250    0.0370   -3.5160 ca        1 7PC      0.015100
     12 C1          3.0760   -1.2560   -4.0130 ca        1 7PC      0.122100
     13 O22         2.7170   -2.3220   -3.2250 oh        1 7PC     -0.497100
     14 C6          3.7010   -1.4110   -5.2600 ca        1 7PC     -0.170000
     15 C5          4.0700   -0.2810   -5.9950 cp        1 7PC     -0.074500
     16 C4          3.8220    1.0040   -5.4870 ca        1 7PC     -0.142000
     17 C3          3.2030    1.1660   -4.2530 ca        1 7PC     -0.087000
     18 C7          4.7220   -0.4320   -7.3110 cp        1 7PC      0.429800
     19 N23         5.6700   -1.3970   -7.4600 nb        1 7PC     -0.661000
     20 C24         6.2520   -1.5120   -8.6640 ca        1 7PC      0.399200
     21 C25         5.9350   -0.7000   -9.7710 ca        1 7PC     -0.228300
     22 C26         4.9590    0.2810   -9.6100 ca        1 7PC     -0.089000
     23 C27         4.3400    0.4240   -8.3660 ca        1 7PC     -0.223300
     24 H16         1.8580    0.3960    2.1530 ha        1 7PC      0.147000
     25 H19         4.6620   -0.3550   -1.9210 ha        1 7PC      0.177000
     26 H22         5.6890   -0.5290    0.3380 ha        1 7PC      0.142000
     27 H291        5.5470   -0.0100    2.7020 hx        1 7PC      0.110200
     28 H292        3.9590    0.5410    3.4480 hx        1 7PC      0.110200
     29 H301        4.6290   -1.6280    4.2550 hn        1 7PC      0.455800
     30 H302        3.2240   -1.7760    3.3630 hn        1 7PC      0.455800
     31 HO22        2.8040   -3.1280   -3.7580 ho        1 7PC      0.436000
     32 H6          3.8970   -2.4210   -5.6510 ha        1 7PC      0.165000
     33 H4          4.1230    1.8900   -6.0660 ha        1 7PC      0.155000
     34 H3          2.9910    2.1710   -3.8550 ha        1 7PC      0.159000
     35 H24         7.0190   -2.3040   -8.7460 h4        1 7PC      0.030100
     36 H25         6.4480   -0.8450  -10.7310 ha        1 7PC      0.155000
     37 H26         4.6760    0.9350  -10.4480 ha        1 7PC      0.150000
     38 H27         3.5610    1.1840   -8.2100 ha        1 7PC      0.149000
     39 H303        4.6700   -2.2710    2.7140 hn        1 7PC      0.455800
@<TRIPOS>BOND
     1    1    2 1   
     2    2    3 ar  
     3    2    4 ar  
     4    3    7 ar  
     5    3   24 1   
     6    4    5 ar  
     7    4   10 1   
     8    5    6 ar  
     9    5   25 1   
    10    6    7 ar  
    11    6   26 1   
    12    7    8 1   
    13    8    9 1   
    14    8   27 1   
    15    8   28 1   
    16    9   29 1   
    17    9   30 1   
    18    9   39 1   
    19   10   11 1   
    20   11   12 ar  
    21   11   17 ar  
    22   12   13 1   
    23   12   14 ar  
    24   13   31 1   
    25   14   15 ar  
    26   14   32 1   
    27   15   16 ar  
    28   15   18 1   
    29   16   17 ar  
    30   16   33 1   
    31   17   34 1   
    32   18   19 ar  
    33   18   23 ar  
    34   19   20 ar  
    35   20   21 ar  
    36   20   35 1   
    37   21   22 ar  
    38   21   36 1   
    39   22   23 ar  
    40   22   37 1   
    41   23   38 1   
@<TRIPOS>SUBSTRUCTURE
     1 7PC         1 TEMP              0 ****  ****    0 ROOT
