@<TRIPOS>MOLECULE
7PC
   38    32     1     0     0
SMALL
bcc


@<TRIPOS>ATOM
      1 CL2        -2.4420    2.6570    1.4350 cl        1 7PC      0.010000
      2 C15        -1.5880    1.3200    2.2740 c2        1 7PC     -0.084000
      3 C16        -0.9170    1.5700    3.4890 c2        1 7PC     -0.084000
      4 C14        -1.7190    0.0430    1.8200 c1        1 7PC      0.068000
      5 C19        -1.1720   -1.0500    2.5830 c1        1 7PC     -0.136000
      6 C22        -0.5220   -0.8050    3.7600 c1        1 7PC     -0.136000
      7 C17        -0.3870    0.5080    4.2260 c1        1 7PC     -0.099000
      8 C29         0.3720    0.7810    5.4700 c3        1 7PC     -0.037000
      9 N30        -0.5560    1.0540    6.5700 n3        1 7PC     -0.350000
     10 O13        -2.4280   -0.2210    0.5640 os        1 7PC     -0.159000
     11 C2         -1.5080   -0.2260   -0.4990 c2        1 7PC     -0.033000
     12 C1         -1.0290   -1.4410   -1.0070 c2        1 7PC      0.081000
     13 O22        -1.5570   -2.7180   -0.4850 oh        1 7PC     -0.246000
     14 C6         -0.1450   -1.4440   -2.0820 c1        1 7PC     -0.139000
     15 C5          0.2600   -0.2560   -2.6450 c1        1 7PC      0.004000
     16 C4         -0.2080    0.9400   -2.1480 c1        1 7PC     -0.141000
     17 C3         -1.1040    0.9510   -1.0600 c1        1 7PC     -0.120000
     18 C7          1.1390   -0.2600   -3.6590 c1        1 7PC      0.004000
     19 N23         2.4750   -0.2320   -3.4010 n1        1 7PC     -0.132000
     20 C24         3.4080   -0.2430   -4.4730 c1        1 7PC     -0.068000
     21 C25         2.9570   -0.2830   -5.7870 c1        1 7PC     -0.136000
     22 C26         1.6050   -0.3120   -6.0500 c1        1 7PC     -0.136000
     23 C27         0.6820   -0.3010   -4.9880 c1        1 7PC     -0.141000
     24 H16        -0.8160    2.5310    3.8310 ha        1 7PC      0.167000
     25 H19        -1.2700   -2.0110    2.2440 ha        1 7PC      0.145000
     26 H22        -0.1880   -1.4720    4.2220 ha        1 7PC      0.145000
     27 H291        0.9060    0.0240    5.6880 h1        1 7PC      0.075000
     28 H292        0.9230    1.5210    5.3390 h1        1 7PC      0.075000
     29 H301       -0.5960    0.3540    7.0940 hn        1 7PC      0.150000
     30 H302       -0.2380    1.8110    7.0720 hn        1 7PC      0.150000
     31 HO22       -2.2350   -2.9020   -0.8700 ho        1 7PC      0.238000
     32 H6          0.1740   -2.2510   -2.4220 ha        1 7PC      0.157000
     33 H4          0.0630    1.7280   -2.5250 ha        1 7PC      0.152500
     34 H3         -1.4370    1.8060   -0.7060 ha        1 7PC      0.152000
     35 H24         4.3990   -0.2220   -4.2790 ha        1 7PC      0.160000
     36 H25         3.6020   -0.2910   -6.5280 ha        1 7PC      0.145000
     37 H26         1.3120   -0.3390   -6.9030 ha        1 7PC      0.145000
     38 H27        -0.2150   -0.3190   -5.1620 ha        1 7PC      0.152500
@<TRIPOS>BOND
     1    1    2 1   
     2    2    3 1   
     3    2    4 1   
     4    3    7 1   
     5    3   24 1   
     6    4   10 1   
     7    5    6 1   
     8    5   25 1   
     9    6   26 1   
    10    7    8 1   
    11    8    9 1   
    12    8   27 1   
    13    8   28 1   
    14    9   29 1   
    15    9   30 1   
    16   10   11 1   
    17   11   12 1   
    18   11   17 1   
    19   12   13 1   
    20   12   14 1   
    21   13   31 1   
    22   14   32 1   
    23   15   16 1   
    24   16   33 1   
    25   17   34 1   
    26   18   23 1   
    27   19   20 1   
    28   20   35 1   
    29   21   22 1   
    30   21   36 1   
    31   22   37 1   
    32   23   38 1   
@<TRIPOS>SUBSTRUCTURE
     1 7PC         1 TEMP              0 ****  ****    0 ROOT
