@<TRIPOS>MOLECULE
7PE
   51    50     1     0     0
SMALL
bcc


@<TRIPOS>ATOM
      1 C21       -10.5310    1.9140   -4.6250 c3        1 7PE     -0.097100
      2 C20        -9.2750    1.0560   -4.8250 c3        1 7PE      0.132400
      3 O19        -8.2160    1.5350   -3.9640 os        1 7PE     -0.428600
      4 C18        -7.0420    0.7270   -3.9890 c3        1 7PE      0.127400
      5 C17        -5.9530    1.3740   -3.1090 c3        1 7PE      0.130400
      6 O16        -4.8800    0.4520   -2.9310 os        1 7PE     -0.430600
      7 C15        -3.6890    1.0420   -2.4080 c3        1 7PE      0.130400
      8 C14        -2.7120   -0.0990   -1.9020 c3        1 7PE      0.128400
      9 O13        -1.5150    0.4850   -1.4350 os        1 7PE     -0.429600
     10 C12        -0.6810   -0.4150   -0.6890 c3        1 7PE      0.128400
     11 C11         0.7570    0.1890   -0.5490 c3        1 7PE      0.127400
     12 O10         1.3790   -0.3530    0.5930 os        1 7PE     -0.428600
     13 C9          2.7750   -0.0750    0.6840 c3        1 7PE      0.127400
     14 C8          3.2610   -0.3760    2.1050 c3        1 7PE      0.128400
     15 O7          4.7080   -0.5530    2.0950 os        1 7PE     -0.429600
     16 C6          5.3000   -0.5760    3.3890 c3        1 7PE      0.128400
     17 C5          6.7930   -1.0220    3.2680 c3        1 7PE      0.130400
     18 O4          7.3970   -0.9990    4.5500 os        1 7PE     -0.431600
     19 C3          8.7020   -1.5650    4.5860 c3        1 7PE      0.129400
     20 C2          9.2280   -1.5120    5.9860 c3        1 7PE      0.127400
     21 O1         10.4450   -2.2790    6.0670 oh        1 7PE     -0.602800
     22 H211      -11.1990    1.6790   -5.3050 hc        1 7PE      0.045367
     23 H212      -10.8930    1.7510   -3.7480 hc        1 7PE      0.045367
     24 H213      -10.3030    2.8350   -4.7080 hc        1 7PE      0.045367
     25 H201       -8.9870    1.1140   -5.7600 h1        1 7PE      0.025700
     26 H202       -9.4820    0.1100   -4.6010 h1        1 7PE      0.025700
     27 H181       -6.7170    0.6530   -4.9080 h1        1 7PE      0.039200
     28 H182       -7.2550   -0.1720   -3.6420 h1        1 7PE      0.039200
     29 H171       -5.6190    2.1830   -3.5440 h1        1 7PE      0.041700
     30 H172       -6.3360    1.6060   -2.2290 h1        1 7PE      0.041700
     31 H151       -3.9220    1.6460   -1.6440 h1        1 7PE      0.041700
     32 H152       -3.2340    1.5730   -3.1300 h1        1 7PE      0.041700
     33 H141       -2.5120   -0.7070   -2.6390 h1        1 7PE      0.040700
     34 H142       -3.1440   -0.6040   -1.1630 h1        1 7PE      0.040700
     35 H121       -1.0630   -0.5510    0.1970 h1        1 7PE      0.044700
     36 H122       -0.6290   -1.2720   -1.1540 h1        1 7PE      0.044700
     37 H111        1.2930   -0.0370   -1.3590 h1        1 7PE      0.044200
     38 H112        0.6970    1.1530   -0.4590 h1        1 7PE      0.044200
     39 H91         2.9410    0.8970    0.4710 h1        1 7PE      0.044200
     40 H92         3.2550   -0.6280    0.0580 h1        1 7PE      0.044200
     41 H81         3.0300    0.3570    2.6810 h1        1 7PE      0.044700
     42 H82         2.8300   -1.2010    2.4340 h1        1 7PE      0.044700
     43 H61         5.2580    0.3130    3.7800 h1        1 7PE      0.040700
     44 H62         4.8110   -1.2130    3.9650 h1        1 7PE      0.040700
     45 H51         7.2750   -0.4030    2.6650 h1        1 7PE      0.042200
     46 H52         6.8340   -1.9160    2.9090 h1        1 7PE      0.042200
     47 H31         9.3040   -1.0490    3.9870 h1        1 7PE      0.042700
     48 H32         8.6620   -2.5240    4.2770 h1        1 7PE      0.042700
     49 H21         8.5530   -1.8930    6.6090 h1        1 7PE      0.035700
     50 H22         9.4100   -0.5840    6.2310 h1        1 7PE      0.035700
     51 HO1        10.8890   -2.0670    6.8330 ho        1 7PE      0.405000
@<TRIPOS>BOND
     1    1    2 1   
     2    1   22 1   
     3    1   23 1   
     4    1   24 1   
     5    2    3 1   
     6    2   25 1   
     7    2   26 1   
     8    3    4 1   
     9    4    5 1   
    10    4   27 1   
    11    4   28 1   
    12    5    6 1   
    13    5   29 1   
    14    5   30 1   
    15    6    7 1   
    16    7    8 1   
    17    7   31 1   
    18    7   32 1   
    19    8    9 1   
    20    8   33 1   
    21    8   34 1   
    22    9   10 1   
    23   10   11 1   
    24   10   35 1   
    25   10   36 1   
    26   11   12 1   
    27   11   37 1   
    28   11   38 1   
    29   12   13 1   
    30   13   14 1   
    31   13   39 1   
    32   13   40 1   
    33   14   15 1   
    34   14   41 1   
    35   14   42 1   
    36   15   16 1   
    37   16   17 1   
    38   16   43 1   
    39   16   44 1   
    40   17   18 1   
    41   17   45 1   
    42   17   46 1   
    43   18   19 1   
    44   19   20 1   
    45   19   47 1   
    46   19   48 1   
    47   20   21 1   
    48   20   49 1   
    49   20   50 1   
    50   21   51 1   
@<TRIPOS>SUBSTRUCTURE
     1 7PE         1 TEMP              0 ****  ****    0 ROOT
