@<TRIPOS>MOLECULE
7PE
   51    50     1     0     0
SMALL
bcc


@<TRIPOS>ATOM
      1 C21        10.7090    0.4510    0.0220 c3        1 7PE     -0.097100
      2 C20         9.6010   -0.2410   -0.7370 c3        1 7PE      0.131400
      3 O19         8.5220   -0.4230    0.1790 os        1 7PE     -0.428600
      4 C18         7.4120   -1.0880   -0.4180 c3        1 7PE      0.126400
      5 C17         6.2910   -1.0730    0.6170 c3        1 7PE      0.127400
      6 O16         5.2820   -0.2050    0.1060 os        1 7PE     -0.429600
      7 C15         4.2440    0.0330    1.0540 c3        1 7PE      0.127400
      8 C14         3.1620    0.8220    0.3240 c3        1 7PE      0.127400
      9 O13         2.0750   -0.0780    0.1160 os        1 7PE     -0.429600
     10 C12         1.0560    0.4870   -0.7050 c3        1 7PE      0.127400
     11 C11        -0.1050   -0.5020   -0.6970 c3        1 7PE      0.127400
     12 O10        -1.1300    0.0840    0.1020 os        1 7PE     -0.429600
     13 C9         -2.2150   -0.8140    0.3320 c3        1 7PE      0.127400
     14 C8         -3.3000   -0.0100    1.0400 c3        1 7PE      0.127400
     15 O7         -4.3300    0.2150    0.0790 os        1 7PE     -0.428600
     16 C6         -5.3350    1.1030    0.5630 c3        1 7PE      0.127400
     17 C5         -6.4410    1.1170   -0.4870 c3        1 7PE      0.128400
     18 O4         -7.5310    0.3780    0.0620 os        1 7PE     -0.438600
     19 C3         -8.5730    0.1620   -0.8870 c3        1 7PE      0.087400
     20 C2         -9.6780   -0.5800   -0.1420 c3        1 7PE      0.131400
     21 O1        -10.2620    0.2260    0.8600 oh        1 7PE     -0.600800
     22 H211       11.5760    0.6180   -0.6610 hc        1 7PE      0.045033
     23 H212       10.3570    1.4340    0.4140 hc        1 7PE      0.045033
     24 H213       11.0380   -0.1740    0.8860 hc        1 7PE      0.045033
     25 H201        9.2540    0.3840   -1.6040 h1        1 7PE      0.024700
     26 H202        9.9370   -1.2410   -1.1220 h1        1 7PE      0.024700
     27 H181        7.0970   -0.5560   -1.3550 h1        1 7PE      0.041700
     28 H182        7.7040   -2.1430   -0.6660 h1        1 7PE      0.041700
     29 H171        5.8610   -2.1010    0.7460 h1        1 7PE      0.043200
     30 H172        6.6660   -0.6940    1.6040 h1        1 7PE      0.043200
     31 H151        3.8380   -0.9400    1.4380 h1        1 7PE      0.043700
     32 H152        4.6570    0.6330    1.9080 h1        1 7PE      0.043700
     33 H141        2.8120    1.6820    0.9540 h1        1 7PE      0.043700
     34 H142        3.5430    1.2050   -0.6590 h1        1 7PE      0.043700
     35 H121        0.7350    1.4820   -0.2970 h1        1 7PE      0.043200
     36 H122        1.4520    0.6170   -1.7470 h1        1 7PE      0.043200
     37 H111       -0.4940   -0.6570   -1.7380 h1        1 7PE      0.043700
     38 H112        0.2130   -1.4860   -0.2620 h1        1 7PE      0.043700
     39 H91        -2.5930   -1.2230   -0.6420 h1        1 7PE      0.043700
     40 H92        -1.8640   -1.6560    0.9850 h1        1 7PE      0.043700
     41 H81        -3.7210   -0.5940    1.9000 h1        1 7PE      0.044200
     42 H82        -2.8930    0.9680    1.4110 h1        1 7PE      0.044200
     43 H61        -5.7270    0.7450    1.5510 h1        1 7PE      0.043200
     44 H62        -4.8950    2.1290    0.6800 h1        1 7PE      0.043200
     45 H51        -6.7770    2.1680   -0.6890 h1        1 7PE      0.045200
     46 H52        -6.0910    0.6420   -1.4410 h1        1 7PE      0.045200
     47 H31        -8.9440    1.1490   -1.2710 h1        1 7PE      0.039200
     48 H32        -8.1890   -0.4550   -1.7410 h1        1 7PE      0.039200
     49 H21       -10.5160   -0.8220   -0.8480 h1        1 7PE      0.053200
     50 H22        -9.2700   -1.5230    0.3090 h1        1 7PE      0.053200
     51 HO1        -9.5470    0.5050    1.4480 ho        1 7PE      0.412000
@<TRIPOS>BOND
     1    1    2 1   
     2    1   22 1   
     3    1   23 1   
     4    1   24 1   
     5    2    3 1   
     6    2   25 1   
     7    2   26 1   
     8    3    4 1   
     9    4    5 1   
    10    4   27 1   
    11    4   28 1   
    12    5    6 1   
    13    5   29 1   
    14    5   30 1   
    15    6    7 1   
    16    7    8 1   
    17    7   31 1   
    18    7   32 1   
    19    8    9 1   
    20    8   33 1   
    21    8   34 1   
    22    9   10 1   
    23   10   11 1   
    24   10   35 1   
    25   10   36 1   
    26   11   12 1   
    27   11   37 1   
    28   11   38 1   
    29   12   13 1   
    30   13   14 1   
    31   13   39 1   
    32   13   40 1   
    33   14   15 1   
    34   14   41 1   
    35   14   42 1   
    36   15   16 1   
    37   16   17 1   
    38   16   43 1   
    39   16   44 1   
    40   17   18 1   
    41   17   45 1   
    42   17   46 1   
    43   18   19 1   
    44   19   20 1   
    45   19   47 1   
    46   19   48 1   
    47   20   21 1   
    48   20   49 1   
    49   20   50 1   
    50   21   51 1   
@<TRIPOS>SUBSTRUCTURE
     1 7PE         1 TEMP              0 ****  ****    0 ROOT
