@<TRIPOS>MOLECULE
7PE
   51    50     1     0     0
SMALL
bcc


@<TRIPOS>ATOM
      1 C21        -0.2460    2.4030    0.0810 c3        1 7PE     -0.097100
      2 C20        -0.1900    0.9200    0.3660 c3        1 7PE      0.131400
      3 O19         1.1900    0.5560    0.3970 os        1 7PE     -0.428600
      4 C18         1.3760   -0.8360    0.6410 c3        1 7PE      0.126400
      5 C17         2.8780   -1.0490    0.8030 c3        1 7PE      0.127400
      6 O16         3.0930   -1.3890    2.1710 os        1 7PE     -0.429600
      7 C15         4.4790   -1.4510    2.5000 c3        1 7PE      0.127400
      8 C14         4.5620   -1.9880    3.9250 c3        1 7PE      0.127400
      9 O13         5.0420   -3.3270    3.8270 os        1 7PE     -0.429600
     10 C12         5.0130   -4.0050    5.0810 c3        1 7PE      0.127400
     11 C11         5.7100   -5.3440    4.8660 c3        1 7PE      0.127400
     12 O10         6.9750   -5.2520    5.5180 os        1 7PE     -0.429600
     13 C9          7.8030   -6.3820    5.2530 c3        1 7PE      0.127400
     14 C8          9.0350   -6.2340    6.1390 c3        1 7PE      0.127400
     15 O7          8.8990   -7.1930    7.1860 os        1 7PE     -0.428600
     16 C6          9.9050   -7.0470    8.1850 c3        1 7PE      0.127400
     17 C5          9.7430   -8.2280    9.1370 c3        1 7PE      0.128400
     18 O4         10.8310   -9.1130    8.8760 os        1 7PE     -0.438600
     19 C3         10.7080  -10.3470    9.5790 c3        1 7PE      0.087400
     20 C2         11.9620  -11.1500    9.2480 c3        1 7PE      0.131400
     21 O1         13.1220  -10.5460    9.7790 oh        1 7PE     -0.600800
     22 H211       -1.3110    2.7330    0.0520 hc        1 7PE      0.045033
     23 H212        0.2360    2.6300   -0.8990 hc        1 7PE      0.045033
     24 H213        0.2930    2.9720    0.8760 hc        1 7PE      0.045033
     25 H201       -0.6620    0.6800    1.3570 h1        1 7PE      0.024700
     26 H202       -0.7130    0.3340   -0.4360 h1        1 7PE      0.024700
     27 H181        0.9890   -1.4190   -0.2350 h1        1 7PE      0.041700
     28 H182        0.8280   -1.1450    1.5710 h1        1 7PE      0.041700
     29 H171        3.4430   -0.1150    0.5400 h1        1 7PE      0.043200
     30 H172        3.2270   -1.8950    0.1540 h1        1 7PE      0.043200
     31 H151        4.9180   -0.4200    2.4440 h1        1 7PE      0.043700
     32 H152        5.0180   -2.1300    1.7870 h1        1 7PE      0.043700
     33 H141        5.2860   -1.3810    4.5300 h1        1 7PE      0.043700
     34 H142        3.5530   -1.9720    4.4160 h1        1 7PE      0.043700
     35 H121        5.5440   -3.4000    5.8620 h1        1 7PE      0.043200
     36 H122        3.9450   -4.1640    5.3880 h1        1 7PE      0.043200
     37 H111        5.1160   -6.1740    5.3320 h1        1 7PE      0.043700
     38 H112        5.8500   -5.5490    3.7720 h1        1 7PE      0.043700
     39 H91         8.0970   -6.3770    4.1700 h1        1 7PE      0.043700
     40 H92         7.2530   -7.3310    5.4900 h1        1 7PE      0.043700
     41 H81         9.0960   -5.1980    6.5660 h1        1 7PE      0.044200
     42 H82         9.9660   -6.4570    5.5550 h1        1 7PE      0.044200
     43 H61        10.9240   -7.0510    7.7150 h1        1 7PE      0.043200
     44 H62         9.7450   -6.0810    8.7320 h1        1 7PE      0.043200
     45 H51         9.7990   -7.8830   10.2030 h1        1 7PE      0.045200
     46 H52         8.7660   -8.7520    8.9590 h1        1 7PE      0.045200
     47 H31         9.7890  -10.8910    9.2360 h1        1 7PE      0.039200
     48 H32        10.6410  -10.1500   10.6810 h1        1 7PE      0.039200
     49 H21        11.9070  -12.1590    9.7360 h1        1 7PE      0.053200
     50 H22        12.0610  -11.2660    8.1360 h1        1 7PE      0.053200
     51 HO1        13.1590   -9.6480    9.4240 ho        1 7PE      0.412000
@<TRIPOS>BOND
     1    1    2 1   
     2    1   22 1   
     3    1   23 1   
     4    1   24 1   
     5    2    3 1   
     6    2   25 1   
     7    2   26 1   
     8    3    4 1   
     9    4    5 1   
    10    4   27 1   
    11    4   28 1   
    12    5    6 1   
    13    5   29 1   
    14    5   30 1   
    15    6    7 1   
    16    7    8 1   
    17    7   31 1   
    18    7   32 1   
    19    8    9 1   
    20    8   33 1   
    21    8   34 1   
    22    9   10 1   
    23   10   11 1   
    24   10   35 1   
    25   10   36 1   
    26   11   12 1   
    27   11   37 1   
    28   11   38 1   
    29   12   13 1   
    30   13   14 1   
    31   13   39 1   
    32   13   40 1   
    33   14   15 1   
    34   14   41 1   
    35   14   42 1   
    36   15   16 1   
    37   16   17 1   
    38   16   43 1   
    39   16   44 1   
    40   17   18 1   
    41   17   45 1   
    42   17   46 1   
    43   18   19 1   
    44   19   20 1   
    45   19   47 1   
    46   19   48 1   
    47   20   21 1   
    48   20   49 1   
    49   20   50 1   
    50   21   51 1   
@<TRIPOS>SUBSTRUCTURE
     1 7PE         1 TEMP              0 ****  ****    0 ROOT
