@<TRIPOS>MOLECULE
7PE
   51    50     1     0     0
SMALL
bcc


@<TRIPOS>ATOM
      1 C21        -0.2820    2.3910    0.1130 c3        1 7PE     -0.097100
      2 C20        -0.2150    0.9060    0.3810 c3        1 7PE      0.131400
      3 O19         1.1670    0.5540    0.4190 os        1 7PE     -0.428600
      4 C18         1.3630   -0.8390    0.6500 c3        1 7PE      0.126400
      5 C17         2.8660   -1.0410    0.8200 c3        1 7PE      0.127400
      6 O16         3.0730   -1.3940    2.1860 os        1 7PE     -0.429600
      7 C15         4.4570   -1.4480    2.5260 c3        1 7PE      0.127400
      8 C14         4.5340   -2.0000    3.9450 c3        1 7PE      0.127400
      9 O13         5.0300   -3.3330    3.8350 os        1 7PE     -0.429600
     10 C12         4.9980   -4.0250    5.0820 c3        1 7PE      0.127400
     11 C11         5.7120   -5.3540    4.8570 c3        1 7PE      0.127400
     12 O10         6.9720   -5.2530    5.5170 os        1 7PE     -0.429600
     13 C9          7.8150   -6.3710    5.2450 c3        1 7PE      0.127400
     14 C8          9.0410   -6.2170    6.1390 c3        1 7PE      0.127400
     15 O7          8.9120   -7.1890    7.1750 os        1 7PE     -0.428600
     16 C6          9.9110   -7.0420    8.1810 c3        1 7PE      0.127400
     17 C5          9.7600   -8.2340    9.1190 c3        1 7PE      0.128400
     18 O4         10.8610   -9.1020    8.8540 os        1 7PE     -0.438600
     19 C3         10.7500  -10.3460    9.5430 c3        1 7PE      0.087400
     20 C2         12.0150  -11.1290    9.2100 c3        1 7PE      0.131400
     21 O1         13.1660  -10.5160    9.7520 oh        1 7PE     -0.600800
     22 H211       -1.3500    2.7130    0.0780 hc        1 7PE      0.045033
     23 H212        0.2060    2.6330   -0.8620 hc        1 7PE      0.045033
     24 H213        0.2450    2.9560    0.9180 hc        1 7PE      0.045033
     25 H201       -0.6930    0.6510    1.3650 h1        1 7PE      0.024700
     26 H202       -0.7270    0.3250   -0.4320 h1        1 7PE      0.024700
     27 H181        0.9880   -1.4160   -0.2360 h1        1 7PE      0.041700
     28 H182        0.8110   -1.1630    1.5710 h1        1 7PE      0.041700
     29 H171        3.4250   -0.1000    0.5730 h1        1 7PE      0.043200
     30 H172        3.2270   -1.8770    0.1660 h1        1 7PE      0.043200
     31 H151        4.8870   -0.4120    2.4850 h1        1 7PE      0.043700
     32 H152        5.0080   -2.1130    1.8090 h1        1 7PE      0.043700
     33 H141        5.2470   -1.3930    4.5630 h1        1 7PE      0.043700
     34 H142        3.5210   -2.0010    4.4280 h1        1 7PE      0.043700
     35 H121        5.5170   -3.4230    5.8740 h1        1 7PE      0.043200
     36 H122        3.9300   -4.2000    5.3790 h1        1 7PE      0.043200
     37 H111        5.1250   -6.1950    5.3120 h1        1 7PE      0.043700
     38 H112        5.8610   -5.5460    3.7620 h1        1 7PE      0.043700
     39 H91         8.1140   -6.3530    4.1640 h1        1 7PE      0.043700
     40 H92         7.2750   -7.3290    5.4710 h1        1 7PE      0.043700
     41 H81         9.0870   -5.1850    6.5770 h1        1 7PE      0.044200
     42 H82         9.9780   -6.4230    5.5570 h1        1 7PE      0.044200
     43 H61        10.9320   -7.0270    7.7150 h1        1 7PE      0.043200
     44 H62         9.7370   -6.0830    8.7360 h1        1 7PE      0.043200
     45 H51         9.8070   -7.9000   10.1890 h1        1 7PE      0.045200
     46 H52         8.7910   -8.7680    8.9320 h1        1 7PE      0.045200
     47 H31         9.8390  -10.8970    9.1900 h1        1 7PE      0.039200
     48 H32        10.6750  -10.1600   10.6470 h1        1 7PE      0.039200
     49 H21        11.9710  -12.1430    9.6880 h1        1 7PE      0.053200
     50 H22        12.1200  -11.2320    8.0970 h1        1 7PE      0.053200
     51 HO1        13.1920   -9.6140    9.4060 ho        1 7PE      0.412000
@<TRIPOS>BOND
     1    1    2 1   
     2    1   22 1   
     3    1   23 1   
     4    1   24 1   
     5    2    3 1   
     6    2   25 1   
     7    2   26 1   
     8    3    4 1   
     9    4    5 1   
    10    4   27 1   
    11    4   28 1   
    12    5    6 1   
    13    5   29 1   
    14    5   30 1   
    15    6    7 1   
    16    7    8 1   
    17    7   31 1   
    18    7   32 1   
    19    8    9 1   
    20    8   33 1   
    21    8   34 1   
    22    9   10 1   
    23   10   11 1   
    24   10   35 1   
    25   10   36 1   
    26   11   12 1   
    27   11   37 1   
    28   11   38 1   
    29   12   13 1   
    30   13   14 1   
    31   13   39 1   
    32   13   40 1   
    33   14   15 1   
    34   14   41 1   
    35   14   42 1   
    36   15   16 1   
    37   16   17 1   
    38   16   43 1   
    39   16   44 1   
    40   17   18 1   
    41   17   45 1   
    42   17   46 1   
    43   18   19 1   
    44   19   20 1   
    45   19   47 1   
    46   19   48 1   
    47   20   21 1   
    48   20   49 1   
    49   20   50 1   
    50   21   51 1   
@<TRIPOS>SUBSTRUCTURE
     1 7PE         1 TEMP              0 ****  ****    0 ROOT
