@<TRIPOS>MOLECULE
7PG
   62    61     1     0     0
SMALL
bcc


@<TRIPOS>ATOM
      1 OXT         5.7940   -3.5840    3.8440 oh        1 7PG     -0.602800
      2 C1          4.7810   -3.6480    4.8270 c3        1 7PG      0.127400
      3 C2          3.8940   -2.3800    4.7340 c3        1 7PG      0.129400
      4 O1          2.6100   -2.6630    5.2570 os        1 7PG     -0.431600
      5 C3          1.6750   -1.5660    5.1440 c3        1 7PG      0.130400
      6 C4          0.2870   -2.0460    5.5150 c3        1 7PG      0.128400
      7 O2         -0.6790   -1.1700    4.9650 os        1 7PG     -0.429600
      8 C5         -2.0180   -1.6510    5.0630 c3        1 7PG      0.129400
      9 C6         -2.9720   -0.6850    4.3160 c3        1 7PG      0.127400
     10 O3         -3.5340   -1.3490    3.1750 os        1 7PG     -0.427600
     11 C7         -4.3780   -0.5060    2.3690 c3        1 7PG      0.127400
     12 C8         -4.9350   -1.3390    1.1330 c3        1 7PG      0.126400
     13 O4         -4.4350   -0.7530   -0.1230 os        1 7PG     -0.435600
     14 C9         -4.6040   -1.6280   -1.3000 c3        1 7PG      0.097400
     15 C10        -4.4010   -0.7880   -2.6180 c3        1 7PG      0.122400
     16 O5         -3.0010   -0.6010   -2.8550 os        1 7PG     -0.419600
     17 C11        -2.6190   -0.7330   -4.2490 c3        1 7PG      0.129400
     18 C12        -1.9700    0.5530   -4.7190 c3        1 7PG      0.090400
     19 O6         -0.5740    0.4680   -4.5460 os        1 7PG     -0.427600
     20 C13         0.1480    1.3810   -5.3260 c3        1 7PG      0.130400
     21 C14         1.5830    1.4670   -4.8160 c3        1 7PG      0.128400
     22 O7          1.9580    2.8240   -4.6990 os        1 7PG     -0.430600
     23 C15         3.3130    3.0160   -4.2940 c3        1 7PG      0.128400
     24 C16         3.5650    4.5140   -4.0320 c3        1 7PG      0.123400
     25 O8          4.5930    4.6560   -3.0790 os        1 7PG     -0.424600
     26 C17         4.8030    5.9760   -2.6630 c3        1 7PG      0.117700
     27 HOXT        6.4800   -4.1120    4.0860 ho        1 7PG      0.405000
     28 H11         4.2280   -4.4470    4.6770 h1        1 7PG      0.035700
     29 H12         5.1910   -3.6960    5.7180 h1        1 7PG      0.035700
     30 H21         4.3040   -1.6590    5.2500 h1        1 7PG      0.042700
     31 H22         3.8120   -2.1050    3.7940 h1        1 7PG      0.042700
     32 H31         1.6700   -1.2340    4.2180 h1        1 7PG      0.042200
     33 H32         1.9450   -0.8420    5.7510 h1        1 7PG      0.042200
     34 H41         0.1960   -2.0600    6.4910 h1        1 7PG      0.040700
     35 H42         0.1460   -2.9540    5.1590 h1        1 7PG      0.040700
     36 H51        -2.0740   -2.5430    4.6610 h1        1 7PG      0.045200
     37 H52        -2.2760   -1.7030    6.0020 h1        1 7PG      0.045200
     38 H61        -2.4720    0.1030    4.0220 h1        1 7PG      0.044200
     39 H62        -3.6980   -0.4050    4.9250 h1        1 7PG      0.044200
     40 H71        -3.8540    0.2660    2.0390 h1        1 7PG      0.043700
     41 H72        -5.1530   -0.1730    2.9280 h1        1 7PG      0.043700
     42 H81        -4.6310   -2.2700    1.2030 h1        1 7PG      0.044200
     43 H82        -5.9190   -1.3150    1.1380 h1        1 7PG      0.044200
     44 H91        -5.5130   -2.0160   -1.2940 h1        1 7PG      0.041200
     45 H92        -3.9380   -2.3530   -1.2670 h1        1 7PG      0.041200
     46 H101       -4.8360    0.0850   -2.5200 h1        1 7PG      0.063200
     47 H102       -4.8060   -1.2780   -3.3910 h1        1 7PG      0.063200
     48 H111       -3.4130   -0.9110   -4.7890 h1        1 7PG      0.060200
     49 H112       -1.9820   -1.4770   -4.3470 h1        1 7PG      0.060200
     50 H121       -2.3170    1.3010   -4.1980 h1        1 7PG      0.043200
     51 H122       -2.1720    0.6930   -5.6620 h1        1 7PG      0.043200
     52 H131        0.1500    1.0810   -6.2610 h1        1 7PG      0.040200
     53 H132       -0.2750    2.2680   -5.2680 h1        1 7PG      0.040200
     54 H141        1.6460    1.0290   -3.9300 h1        1 7PG      0.041200
     55 H142        2.1850    1.0130   -5.4510 h1        1 7PG      0.041200
     56 H151        3.9060    2.7070   -4.9940 h1        1 7PG      0.044700
     57 H152        3.4840    2.5060   -3.4690 h1        1 7PG      0.044700
     58 H161        2.7340    4.9360   -3.6880 h1        1 7PG      0.042700
     59 H162        3.8300    4.9490   -4.8620 h1        1 7PG      0.042700
     60 H171        5.2880    5.9760   -1.8160 h1        1 7PG      0.033033
     61 H172        5.3240    6.4500   -3.3380 h1        1 7PG      0.033033
     62 H173        3.9290    6.4260   -2.5430 h1        1 7PG      0.033033
@<TRIPOS>BOND
     1    1    2 1   
     2    1   27 1   
     3    2    3 1   
     4    2   28 1   
     5    2   29 1   
     6    3    4 1   
     7    3   30 1   
     8    3   31 1   
     9    4    5 1   
    10    5    6 1   
    11    5   32 1   
    12    5   33 1   
    13    6    7 1   
    14    6   34 1   
    15    6   35 1   
    16    7    8 1   
    17    8    9 1   
    18    8   36 1   
    19    8   37 1   
    20    9   10 1   
    21    9   38 1   
    22    9   39 1   
    23   10   11 1   
    24   11   12 1   
    25   11   40 1   
    26   11   41 1   
    27   12   13 1   
    28   12   42 1   
    29   12   43 1   
    30   13   14 1   
    31   14   15 1   
    32   14   44 1   
    33   14   45 1   
    34   15   16 1   
    35   15   46 1   
    36   15   47 1   
    37   16   17 1   
    38   17   18 1   
    39   17   48 1   
    40   17   49 1   
    41   18   19 1   
    42   18   50 1   
    43   18   51 1   
    44   19   20 1   
    45   20   21 1   
    46   20   52 1   
    47   20   53 1   
    48   21   22 1   
    49   21   54 1   
    50   21   55 1   
    51   22   23 1   
    52   23   24 1   
    53   23   56 1   
    54   23   57 1   
    55   24   25 1   
    56   24   58 1   
    57   24   59 1   
    58   25   26 1   
    59   26   60 1   
    60   26   61 1   
    61   26   62 1   
@<TRIPOS>SUBSTRUCTURE
     1 7PG         1 TEMP              0 ****  ****    0 ROOT
