@<TRIPOS>MOLECULE
7PG
   62    61     1     0     0
SMALL
bcc


@<TRIPOS>ATOM
      1 OXT       -12.7740    6.3860    7.6900 oh        1 7PG     -0.598800
      2 C1        -11.8820    5.3410    8.0150 c3        1 7PG      0.129400
      3 C2        -11.1110    4.8540    6.7930 c3        1 7PG      0.081400
      4 O1        -12.0680    4.2180    5.9490 os        1 7PG     -0.439600
      5 C3        -11.4790    3.6830    4.7640 c3        1 7PG      0.086400
      6 C4        -12.5810    2.9070    4.0470 c3        1 7PG      0.126400
      7 O2        -12.4680    1.5090    4.2690 os        1 7PG     -0.431600
      8 C5        -11.4930    0.8740    3.4400 c3        1 7PG      0.080400
      9 C6        -11.3960   -0.5720    3.9180 c3        1 7PG      0.131400
     10 O3        -10.1410   -0.8510    4.5170 os        1 7PG     -0.426600
     11 C7         -9.9090   -0.1670    5.7470 c3        1 7PG      0.115400
     12 C8         -8.5240    0.4660    5.6920 c3        1 7PG      0.111400
     13 O4         -8.6770    1.7690    5.1230 os        1 7PG     -0.439600
     14 C9         -7.5140    2.5740    5.2540 c3        1 7PG      0.125400
     15 C10        -7.3460    3.0850    6.6820 c3        1 7PG      0.085400
     16 O5         -6.3500    2.2700    7.3020 os        1 7PG     -0.427600
     17 C11        -6.2720    2.4440    8.7090 c3        1 7PG      0.128400
     18 C12        -7.2720    1.5530    9.4380 c3        1 7PG      0.097400
     19 O6         -8.5290    2.2240    9.4230 os        1 7PG     -0.437600
     20 C13        -9.5390    1.5070   10.1330 c3        1 7PG      0.125400
     21 C14       -10.8840    2.0290    9.6390 c3        1 7PG      0.125400
     22 O7        -11.3850    1.0610    8.7220 os        1 7PG     -0.433600
     23 C15       -12.5600    1.5130    8.0450 c3        1 7PG      0.116400
     24 C16       -13.1230    0.3110    7.2970 c3        1 7PG      0.116400
     25 O8        -14.2800   -0.1130    8.0170 os        1 7PG     -0.425600
     26 C17       -14.8820   -1.2610    7.4470 c3        1 7PG      0.117700
     27 HOXT      -13.3570    6.0510    6.9960 ho        1 7PG      0.413000
     28 H11       -11.1710    5.7840    8.7630 h1        1 7PG      0.052200
     29 H12       -12.4420    4.4830    8.4770 h1        1 7PG      0.052200
     30 H21       -10.3180    4.1190    7.0950 h1        1 7PG      0.043200
     31 H22       -10.6420    5.7150    6.2470 h1        1 7PG      0.043200
     32 H31       -11.1090    4.5300    4.1280 h1        1 7PG      0.051200
     33 H32       -10.6190    3.0100    5.0340 h1        1 7PG      0.051200
     34 H41       -12.5570    3.1370    2.9500 h1        1 7PG      0.061200
     35 H42       -13.5870    3.1690    4.4750 h1        1 7PG      0.061200
     36 H51       -11.8380    0.9210    2.3740 h1        1 7PG      0.050200
     37 H52       -10.5000    1.3890    3.5400 h1        1 7PG      0.050200
     38 H61       -11.4330   -1.2760    3.0440 h1        1 7PG      0.058200
     39 H62       -12.2290   -0.8020    4.6360 h1        1 7PG      0.058200
     40 H71       -10.6940    0.6100    5.9520 h1        1 7PG      0.061700
     41 H72        -9.9310   -0.9460    6.5560 h1        1 7PG      0.061700
     42 H81        -7.8330   -0.1350    5.0440 h1        1 7PG      0.050700
     43 H82        -8.0980    0.5540    6.7280 h1        1 7PG      0.050700
     44 H91        -6.6010    2.0090    4.9280 h1        1 7PG      0.059700
     45 H92        -7.7050    3.4360    4.5610 h1        1 7PG      0.059700
     46 H101       -8.3130    3.0140    7.2490 h1        1 7PG      0.049700
     47 H102       -6.9860    4.1480    6.6800 h1        1 7PG      0.049700
     48 H111       -5.2290    2.1140    8.9670 h1        1 7PG      0.058700
     49 H112       -6.4210    3.5170    8.9930 h1        1 7PG      0.058700
     50 H121       -6.9420    1.3950   10.4990 h1        1 7PG      0.039700
     51 H122       -7.3670    0.5610    8.9210 h1        1 7PG      0.039700
     52 H131       -9.4540    0.4040    9.9440 h1        1 7PG      0.045700
     53 H132       -9.4180    1.7150   11.2280 h1        1 7PG      0.045700
     54 H141      -10.7640    3.0220    9.1270 h1        1 7PG      0.040700
     55 H142      -11.6000    2.1310   10.4960 h1        1 7PG      0.040700
     56 H151      -13.3060    1.9080    8.7840 h1        1 7PG      0.054200
     57 H152      -12.2730    2.3250    7.3200 h1        1 7PG      0.054200
     58 H161      -12.3700   -0.5220    7.2550 h1        1 7PG      0.050700
     59 H162      -13.4130    0.6060    6.2530 h1        1 7PG      0.050700
     60 H171      -14.1750   -2.1280    7.4640 h1        1 7PG      0.031367
     61 H172      -15.2070   -1.0570    6.3970 h1        1 7PG      0.031367
     62 H173      -15.7680   -1.4660    8.0980 h1        1 7PG      0.031367
@<TRIPOS>BOND
     1    1    2 1   
     2    1   27 1   
     3    2    3 1   
     4    2   28 1   
     5    2   29 1   
     6    3    4 1   
     7    3   30 1   
     8    3   31 1   
     9    4    5 1   
    10    5    6 1   
    11    5   32 1   
    12    5   33 1   
    13    6    7 1   
    14    6   34 1   
    15    6   35 1   
    16    7    8 1   
    17    8    9 1   
    18    8   36 1   
    19    8   37 1   
    20    9   10 1   
    21    9   38 1   
    22    9   39 1   
    23   10   11 1   
    24   11   12 1   
    25   11   40 1   
    26   11   41 1   
    27   12   13 1   
    28   12   42 1   
    29   12   43 1   
    30   13   14 1   
    31   14   15 1   
    32   14   44 1   
    33   14   45 1   
    34   15   16 1   
    35   15   46 1   
    36   15   47 1   
    37   16   17 1   
    38   17   18 1   
    39   17   48 1   
    40   17   49 1   
    41   18   19 1   
    42   18   50 1   
    43   18   51 1   
    44   19   20 1   
    45   20   21 1   
    46   20   52 1   
    47   20   53 1   
    48   21   22 1   
    49   21   54 1   
    50   21   55 1   
    51   22   23 1   
    52   23   24 1   
    53   23   56 1   
    54   23   57 1   
    55   24   25 1   
    56   24   58 1   
    57   24   59 1   
    58   25   26 1   
    59   26   60 1   
    60   26   61 1   
    61   26   62 1   
@<TRIPOS>SUBSTRUCTURE
     1 7PG         1 TEMP              0 ****  ****    0 ROOT
