@<TRIPOS>MOLECULE
7PG
   62    61     1     0     0
SMALL
bcc


@<TRIPOS>ATOM
      1 OXT        -2.7790    0.8320    0.4290 oh        1 7PG     -0.601800
      2 C1         -2.0910    1.8130   -0.3190 c3        1 7PG      0.131400
      3 C2         -0.5920    1.7870   -0.0420 c3        1 7PG      0.082400
      4 O1         -0.4330    2.1820    1.3210 os        1 7PG     -0.441600
      5 C3          0.9370    2.2070    1.7170 c3        1 7PG      0.121400
      6 C4          0.9860    2.9170    3.0660 c3        1 7PG      0.125400
      7 O2          1.6540    4.1590    2.8460 os        1 7PG     -0.437600
      8 C5          1.6980    4.9640    4.0220 c3        1 7PG      0.092400
      9 C6          2.4350    6.2480    3.6560 c3        1 7PG      0.130400
     10 O3          3.8360    6.1310    3.8560 os        1 7PG     -0.423600
     11 C7          4.4800    5.3560    2.8450 c3        1 7PG      0.119400
     12 C8          5.9570    5.3120    3.2270 c3        1 7PG      0.127400
     13 O4          6.6190    4.6820    2.1330 os        1 7PG     -0.431600
     14 C9          8.0390    4.7940    2.2270 c3        1 7PG      0.128400
     15 C10         8.6080    4.3620    0.8800 c3        1 7PG      0.121400
     16 O5          8.7680    5.5480    0.1050 os        1 7PG     -0.424600
     17 C11         9.0350    5.2960   -1.2680 c3        1 7PG      0.127400
     18 C12         7.8100    4.7570   -2.0000 c3        1 7PG      0.086400
     19 O6          8.0050    3.3490   -2.1470 os        1 7PG     -0.434600
     20 C13         6.8520    2.6650   -2.6140 c3        1 7PG      0.128400
     21 C14         5.8700    2.3890   -1.4800 c3        1 7PG      0.095400
     22 O7          4.9750    3.4970   -1.4190 os        1 7PG     -0.428600
     23 C15         4.1450    3.4530   -0.2590 c3        1 7PG      0.119400
     24 C16         3.0600    4.5060   -0.4420 c3        1 7PG      0.116400
     25 O8          1.9830    3.8870   -1.1450 os        1 7PG     -0.431600
     26 C17         1.0560    4.8280   -1.6590 c3        1 7PG      0.116700
     27 HOXT       -2.5600    0.9820    1.3580 ho        1 7PG      0.412000
     28 H11        -2.5060    2.8310   -0.0910 h1        1 7PG      0.051200
     29 H12        -2.2840    1.5510   -1.3930 h1        1 7PG      0.051200
     30 H21        -0.0470    2.5060   -0.7120 h1        1 7PG      0.048200
     31 H22        -0.1790    0.7540   -0.1820 h1        1 7PG      0.048200
     32 H31         1.3050    1.1520    1.8150 h1        1 7PG      0.052700
     33 H32         1.5550    2.7550    0.9530 h1        1 7PG      0.052700
     34 H41        -0.0490    3.1010    3.4600 h1        1 7PG      0.042700
     35 H42         1.5690    2.3110    3.8090 h1        1 7PG      0.042700
     36 H51         2.2370    4.4150    4.8390 h1        1 7PG      0.041700
     37 H52         0.6520    5.2000    4.3540 h1        1 7PG      0.041700
     38 H61         2.2090    6.5390    2.5960 h1        1 7PG      0.060700
     39 H62         2.1330    7.0690    4.3600 h1        1 7PG      0.060700
     40 H71         4.0370    4.3270    2.8110 h1        1 7PG      0.046700
     41 H72         4.3460    5.8460    1.8440 h1        1 7PG      0.046700
     42 H81         6.1140    4.7090    4.1580 h1        1 7PG      0.040700
     43 H82         6.3500    6.3510    3.3860 h1        1 7PG      0.040700
     44 H91         8.3350    5.8510    2.4580 h1        1 7PG      0.042700
     45 H92         8.4030    4.1100    3.0380 h1        1 7PG      0.042700
     46 H101        7.9170    3.6460    0.3600 h1        1 7PG      0.048700
     47 H102        9.6120    3.8830    1.0240 h1        1 7PG      0.048700
     48 H111        9.8990    4.5890   -1.3760 h1        1 7PG      0.059200
     49 H112        9.3080    6.3070   -1.6710 h1        1 7PG      0.059200
     50 H121        6.8690    4.9580   -1.4210 h1        1 7PG      0.053200
     51 H122        7.7300    5.2160   -3.0200 h1        1 7PG      0.053200
     52 H131        6.3510    3.2370   -3.4380 h1        1 7PG      0.060200
     53 H132        7.2540    1.6920   -3.0050 h1        1 7PG      0.060200
     54 H141        5.2830    1.4560   -1.6930 h1        1 7PG      0.039200
     55 H142        6.4140    2.2760   -0.5050 h1        1 7PG      0.039200
     56 H151        3.6890    2.4340   -0.1450 h1        1 7PG      0.049200
     57 H152        4.7680    3.7020    0.6440 h1        1 7PG      0.049200
     58 H161        2.6880    4.8430    0.5650 h1        1 7PG      0.049700
     59 H162        3.4550    5.3820   -1.0200 h1        1 7PG      0.049700
     60 H171        0.3010    4.2100   -2.2050 h1        1 7PG      0.033700
     61 H172        1.5590    5.5370   -2.3610 h1        1 7PG      0.033700
     62 H173        0.5720    5.3940   -0.8250 h1        1 7PG      0.033700
@<TRIPOS>BOND
     1    1    2 1   
     2    1   27 1   
     3    2    3 1   
     4    2   28 1   
     5    2   29 1   
     6    3    4 1   
     7    3   30 1   
     8    3   31 1   
     9    4    5 1   
    10    5    6 1   
    11    5   32 1   
    12    5   33 1   
    13    6    7 1   
    14    6   34 1   
    15    6   35 1   
    16    7    8 1   
    17    8    9 1   
    18    8   36 1   
    19    8   37 1   
    20    9   10 1   
    21    9   38 1   
    22    9   39 1   
    23   10   11 1   
    24   11   12 1   
    25   11   40 1   
    26   11   41 1   
    27   12   13 1   
    28   12   42 1   
    29   12   43 1   
    30   13   14 1   
    31   14   15 1   
    32   14   44 1   
    33   14   45 1   
    34   15   16 1   
    35   15   46 1   
    36   15   47 1   
    37   16   17 1   
    38   17   18 1   
    39   17   48 1   
    40   17   49 1   
    41   18   19 1   
    42   18   50 1   
    43   18   51 1   
    44   19   20 1   
    45   20   21 1   
    46   20   52 1   
    47   20   53 1   
    48   21   22 1   
    49   21   54 1   
    50   21   55 1   
    51   22   23 1   
    52   23   24 1   
    53   23   56 1   
    54   23   57 1   
    55   24   25 1   
    56   24   58 1   
    57   24   59 1   
    58   25   26 1   
    59   26   60 1   
    60   26   61 1   
    61   26   62 1   
@<TRIPOS>SUBSTRUCTURE
     1 7PG         1 TEMP              0 ****  ****    0 ROOT
