@<TRIPOS>MOLECULE
7PG
   62    61     1     0     0
SMALL
bcc


@<TRIPOS>ATOM
      1 OXT        -2.7220    0.7080    0.5640 oh        1 7PG     -0.601800
      2 C1         -2.0430    1.6510   -0.2390 c3        1 7PG      0.131400
      3 C2         -0.5470    1.6710    0.0530 c3        1 7PG      0.082400
      4 O1         -0.4100    2.1550    1.3890 os        1 7PG     -0.441600
      5 C3          0.9540    2.2300    1.7970 c3        1 7PG      0.121400
      6 C4          0.9770    3.0260    3.0980 c3        1 7PG      0.125400
      7 O2          1.6260    4.2620    2.8050 os        1 7PG     -0.437600
      8 C5          1.6440    5.1430    3.9260 c3        1 7PG      0.092400
      9 C6          2.3640    6.4120    3.4850 c3        1 7PG      0.130400
     10 O3          3.7640    6.3330    3.7070 os        1 7PG     -0.423600
     11 C7          4.4320    5.5050    2.7550 c3        1 7PG      0.119400
     12 C8          5.9050    5.5110    3.1530 c3        1 7PG      0.127400
     13 O4          6.5900    4.8240    2.1090 os        1 7PG     -0.431600
     14 C9          8.0060    4.9650    2.2090 c3        1 7PG      0.128400
     15 C10         8.5970    4.4580    0.8990 c3        1 7PG      0.121400
     16 O5          8.7470    5.5950    0.0510 os        1 7PG     -0.424600
     17 C11         9.0320    5.2600   -1.3000 c3        1 7PG      0.127400
     18 C12         7.8240    4.6550   -2.0080 c3        1 7PG      0.086400
     19 O6          8.0440    3.2440   -2.0630 os        1 7PG     -0.434600
     20 C13         6.9080    2.5120   -2.4970 c3        1 7PG      0.128400
     21 C14         5.9180    2.2920   -1.3570 c3        1 7PG      0.095400
     22 O7          5.0040    3.3860   -1.3760 os        1 7PG     -0.428600
     23 C15         4.1620    3.4020   -0.2240 c3        1 7PG      0.119400
     24 C16         3.0620    4.4220   -0.4850 c3        1 7PG      0.116400
     25 O8          2.0030    3.7400   -1.1570 os        1 7PG     -0.431600
     26 C17         1.0660    4.6300   -1.7390 c3        1 7PG      0.116700
     27 HOXT       -2.5160    0.9220    1.4830 ho        1 7PG      0.412000
     28 H11        -2.4780    2.6740   -0.0820 h1        1 7PG      0.051200
     29 H12        -2.2200    1.3170   -1.2960 h1        1 7PG      0.051200
     30 H21        -0.0080    2.3550   -0.6560 h1        1 7PG      0.048200
     31 H22        -0.1150    0.6370   -0.0150 h1        1 7PG      0.048200
     32 H31         1.3390    1.1900    1.9660 h1        1 7PG      0.052700
     33 H32         1.5720    2.7380    1.0050 h1        1 7PG      0.052700
     34 H41        -0.0650    3.2170    3.4680 h1        1 7PG      0.042700
     35 H42         1.5610    2.4800    3.8840 h1        1 7PG      0.042700
     36 H51         2.1820    4.6570    4.7820 h1        1 7PG      0.041700
     37 H52         0.5910    5.3820    4.2310 h1        1 7PG      0.041700
     38 H61         2.1450    6.6300    2.4070 h1        1 7PG      0.060700
     39 H62         2.0410    7.2720    4.1320 h1        1 7PG      0.060700
     40 H71         4.0060    4.4680    2.7820 h1        1 7PG      0.046700
     41 H72         4.3020    5.9280    1.7230 h1        1 7PG      0.046700
     42 H81         6.0620    4.9720    4.1230 h1        1 7PG      0.040700
     43 H82         6.2790    6.5640    3.2490 h1        1 7PG      0.040700
     44 H91         8.2830    6.0400    2.3760 h1        1 7PG      0.042700
     45 H92         8.3730    4.3410    3.0670 h1        1 7PG      0.042700
     46 H101        7.9240    3.6980    0.4190 h1        1 7PG      0.048700
     47 H102        9.6080    4.0070    1.0830 h1        1 7PG      0.048700
     48 H111        9.9090    4.5630   -1.3540 h1        1 7PG      0.059200
     49 H112        9.2920    6.2490   -1.7650 h1        1 7PG      0.059200
     50 H121        6.8740    4.8760   -1.4530 h1        1 7PG      0.053200
     51 H122        7.7470    5.0470   -3.0570 h1        1 7PG      0.053200
     52 H131        6.4060    3.0220   -3.3600 h1        1 7PG      0.060200
     53 H132        7.3300    1.5230   -2.8210 h1        1 7PG      0.060200
     54 H141        5.3490    1.3370   -1.5160 h1        1 7PG      0.039200
     55 H142        6.4540    2.2510   -0.3720 h1        1 7PG      0.039200
     56 H151        3.7230    2.3840   -0.0500 h1        1 7PG      0.049200
     57 H152        4.7710    3.7190    0.6680 h1        1 7PG      0.049200
     58 H161        2.6730    4.8160    0.4950 h1        1 7PG      0.049700
     59 H162        3.4490    5.2660   -1.1140 h1        1 7PG      0.049700
     60 H171        0.3280    3.9650   -2.2520 h1        1 7PG      0.033700
     61 H172        1.5650    5.3020   -2.4800 h1        1 7PG      0.033700
     62 H173        0.5630    5.2400   -0.9480 h1        1 7PG      0.033700
@<TRIPOS>BOND
     1    1    2 1   
     2    1   27 1   
     3    2    3 1   
     4    2   28 1   
     5    2   29 1   
     6    3    4 1   
     7    3   30 1   
     8    3   31 1   
     9    4    5 1   
    10    5    6 1   
    11    5   32 1   
    12    5   33 1   
    13    6    7 1   
    14    6   34 1   
    15    6   35 1   
    16    7    8 1   
    17    8    9 1   
    18    8   36 1   
    19    8   37 1   
    20    9   10 1   
    21    9   38 1   
    22    9   39 1   
    23   10   11 1   
    24   11   12 1   
    25   11   40 1   
    26   11   41 1   
    27   12   13 1   
    28   12   42 1   
    29   12   43 1   
    30   13   14 1   
    31   14   15 1   
    32   14   44 1   
    33   14   45 1   
    34   15   16 1   
    35   15   46 1   
    36   15   47 1   
    37   16   17 1   
    38   17   18 1   
    39   17   48 1   
    40   17   49 1   
    41   18   19 1   
    42   18   50 1   
    43   18   51 1   
    44   19   20 1   
    45   20   21 1   
    46   20   52 1   
    47   20   53 1   
    48   21   22 1   
    49   21   54 1   
    50   21   55 1   
    51   22   23 1   
    52   23   24 1   
    53   23   56 1   
    54   23   57 1   
    55   24   25 1   
    56   24   58 1   
    57   24   59 1   
    58   25   26 1   
    59   26   60 1   
    60   26   61 1   
    61   26   62 1   
@<TRIPOS>SUBSTRUCTURE
     1 7PG         1 TEMP              0 ****  ****    0 ROOT
