@<TRIPOS>MOLECULE
7PH
   93    92     1     0     0
SMALL
bcc


@<TRIPOS>ATOM
      1 P           1.0150   -2.7980    2.2260 p5        1 7PH      1.321900
      2 O12         1.5640   -3.9670    1.4390 o         1 7PH     -0.912833
      3 O13         0.2050   -3.1760    3.4330 o         1 7PH     -0.912833
      4 O14         1.8940   -1.5870    2.2940 o         1 7PH     -0.912833
      5 O11        -0.2270   -2.2950    1.1190 os        1 7PH     -0.566200
      6 C1          0.1860   -1.5180    0.0760 c3        1 7PH      0.225400
      7 C2         -0.0200   -2.1770   -1.3160 c3        1 7PH      0.075100
      8 C3          0.6310   -3.5580   -1.4150 c3        1 7PH      0.066400
      9 O31        -0.2370   -4.5540   -1.9610 os        1 7PH     -0.448900
     10 O32        -1.6030   -6.2060   -1.7290 o         1 7PH     -0.614000
     11 C31        -1.0440   -5.2800   -1.1150 c         1 7PH      0.666100
     12 C32        -1.1960   -4.8730    0.2990 c3        1 7PH     -0.239400
     13 C33        -2.0230   -5.7960    1.1600 c3        1 7PH     -0.036400
     14 C34        -2.0710   -5.2310    2.5710 c3        1 7PH     -0.122400
     15 C35        -1.7230   -6.2550    3.6300 c3        1 7PH     -0.046400
     16 C36        -1.4150   -5.5540    4.9380 c3        1 7PH     -0.115400
     17 C37        -0.8820   -6.5170    5.9740 c3        1 7PH     -0.064400
     18 C38        -0.5450   -5.7950    7.2620 c3        1 7PH     -0.082400
     19 C39         0.0330   -6.7400    8.2940 c3        1 7PH     -0.076400
     20 C3A         0.3680   -6.0140    9.5800 c3        1 7PH     -0.080400
     21 C3B         0.9550   -6.9540   10.6120 c3        1 7PH     -0.080400
     22 C3C         1.2880   -6.2350   11.8930 c3        1 7PH     -0.089100
     23 O21        -1.4440   -2.3020   -1.5240 os        1 7PH     -0.394900
     24 O22        -1.2990   -1.3850   -3.5860 o         1 7PH     -0.600000
     25 C21        -1.9740   -1.9490   -2.7140 c         1 7PH      0.640100
     26 C22        -3.4310   -2.3130   -2.8030 c3        1 7PH     -0.140400
     27 C23        -4.1680   -1.4150   -3.7710 c3        1 7PH     -0.074400
     28 C24        -5.5970   -1.8770   -3.9570 c3        1 7PH     -0.079400
     29 C25        -6.3440   -0.9730   -4.9150 c3        1 7PH     -0.078400
     30 C26        -7.7730   -1.4360   -5.1060 c3        1 7PH     -0.079400
     31 C27        -8.5200   -0.5330   -6.0640 c3        1 7PH     -0.078400
     32 C28        -9.9490   -0.9960   -6.2560 c3        1 7PH     -0.079400
     33 C29       -10.6960   -0.0930   -7.2140 c3        1 7PH     -0.078400
     34 C2A       -12.1240   -0.5570   -7.4050 c3        1 7PH     -0.079400
     35 C2B       -12.8720    0.3460   -8.3640 c3        1 7PH     -0.078400
     36 C2C       -14.3000   -0.1180   -8.5550 c3        1 7PH     -0.079400
     37 C2D       -15.0490    0.7840   -9.5140 c3        1 7PH     -0.080400
     38 C2E       -16.4720    0.3260   -9.7070 c3        1 7PH     -0.091100
     39 H1         -0.4100   -0.5580    0.0510 h1        1 7PH      0.011700
     40 H1A         1.2860   -1.2740    0.1610 h1        1 7PH      0.011700
     41 H2          0.4100   -1.4940   -2.1000 h1        1 7PH      0.038700
     42 H3          1.0460   -3.8500   -0.3910 h1        1 7PH      0.109200
     43 H3A         1.4650   -3.5240   -2.1680 h1        1 7PH      0.109200
     44 H32        -1.6410   -3.8330    0.2970 hc        1 7PH      0.158200
     45 H32A       -0.1660   -4.7390    0.7910 hc        1 7PH      0.158200
     46 H33        -1.5710   -6.8210    1.1530 hc        1 7PH      0.009200
     47 H33A       -3.0580   -5.8990    0.7400 hc        1 7PH      0.009200
     48 H34        -1.3280   -4.3640    2.6690 hc        1 7PH      0.085700
     49 H34A       -3.0910   -4.8150    2.7750 hc        1 7PH      0.085700
     50 H35        -0.8190   -6.8350    3.3040 hc        1 7PH      0.006700
     51 H35A       -2.5600   -6.9900    3.7650 hc        1 7PH      0.006700
     52 H36        -0.6600   -4.7320    4.7280 hc        1 7PH      0.086700
     53 H36A       -2.3430   -5.0600    5.3270 hc        1 7PH      0.086700
     54 H37        -1.6340   -7.3240    6.1810 hc        1 7PH      0.016700
     55 H37A        0.0400   -7.0180    5.5770 hc        1 7PH      0.016700
     56 H38         0.1890   -4.9760    7.0400 hc        1 7PH      0.047700
     57 H38A       -1.4690   -5.3100    7.6730 hc        1 7PH      0.047700
     58 H39         0.9600   -7.2200    7.8830 hc        1 7PH      0.028700
     59 H39A       -0.6990   -7.5630    8.5070 hc        1 7PH      0.028700
     60 H3AA       -0.5580   -5.5350    9.9930 hc        1 7PH      0.040700
     61 H3AB        1.0970   -5.1900    9.3640 hc        1 7PH      0.040700
     62 H3B         1.8810   -7.4310   10.1960 hc        1 7PH      0.032200
     63 H3BA        0.2260   -7.7810   10.8220 hc        1 7PH      0.032200
     64 H3C         0.3720   -5.7740   12.3360 hc        1 7PH      0.024700
     65 H3CA        2.0310   -5.4220   11.7050 hc        1 7PH      0.024700
     66 H3CB        1.7220   -6.9440   12.6390 hc        1 7PH      0.024700
     67 H22        -3.4830   -3.3840   -3.1360 hc        1 7PH      0.080200
     68 H22A       -3.8880   -2.2550   -1.7800 hc        1 7PH      0.080200
     69 H23        -4.1550   -0.3610   -3.3880 hc        1 7PH      0.048700
     70 H23A       -3.6310   -1.4130   -4.7570 hc        1 7PH      0.048700
     71 H24        -6.1200   -1.8890   -2.9650 hc        1 7PH      0.039700
     72 H24A       -5.6050   -2.9280   -4.3480 hc        1 7PH      0.039700
     73 H25        -5.8170   -0.9580   -5.9050 hc        1 7PH      0.037700
     74 H25A       -6.3380    0.0770   -4.5210 hc        1 7PH      0.037700
     75 H26        -7.7770   -2.4870   -5.4990 hc        1 7PH      0.039200
     76 H26A       -8.2990   -1.4510   -4.1150 hc        1 7PH      0.039200
     77 H27        -8.5150    0.5180   -5.6710 hc        1 7PH      0.037200
     78 H27A       -7.9940   -0.5180   -7.0540 hc        1 7PH      0.037200
     79 H28        -9.9530   -2.0470   -6.6480 hc        1 7PH      0.039200
     80 H28A      -10.4750   -1.0110   -5.2650 hc        1 7PH      0.039200
     81 H29       -10.1700   -0.0780   -8.2040 hc        1 7PH      0.038200
     82 H29A      -10.6910    0.9580   -6.8210 hc        1 7PH      0.038200
     83 H2A       -12.6510   -0.5720   -6.4150 hc        1 7PH      0.039200
     84 H2AA      -12.1290   -1.6080   -7.7980 hc        1 7PH      0.039200
     85 H2B       -12.8670    1.3970   -7.9710 hc        1 7PH      0.038200
     86 H2BA      -12.3450    0.3600   -9.3540 hc        1 7PH      0.038200
     87 H2C       -14.3050   -1.1690   -8.9470 hc        1 7PH      0.039200
     88 H2CA      -14.8270   -0.1320   -7.5650 hc        1 7PH      0.039200
     89 H2D       -14.5200    0.7980  -10.5030 hc        1 7PH      0.037700
     90 H2DA      -15.0410    1.8350   -9.1210 hc        1 7PH      0.037700
     91 H2E       -17.0050    1.0040  -10.4170 hc        1 7PH      0.030033
     92 H2EA      -16.4990   -0.7110  -10.1210 hc        1 7PH      0.030033
     93 H2EB      -17.0220    0.3290   -8.7350 hc        1 7PH      0.030033
@<TRIPOS>BOND
     1    1    2 1   
     2    1    3 1   
     3    1    4 1   
     4    1    5 1   
     5    5    6 1   
     6    6    7 1   
     7    6   39 1   
     8    6   40 1   
     9    7    8 1   
    10    7   23 1   
    11    7   41 1   
    12    8    9 1   
    13    8   42 1   
    14    8   43 1   
    15    9   11 1   
    16   10   11 2   
    17   11   12 1   
    18   12   13 1   
    19   12   44 1   
    20   12   45 1   
    21   13   14 1   
    22   13   46 1   
    23   13   47 1   
    24   14   15 1   
    25   14   48 1   
    26   14   49 1   
    27   15   16 1   
    28   15   50 1   
    29   15   51 1   
    30   16   17 1   
    31   16   52 1   
    32   16   53 1   
    33   17   18 1   
    34   17   54 1   
    35   17   55 1   
    36   18   19 1   
    37   18   56 1   
    38   18   57 1   
    39   19   20 1   
    40   19   58 1   
    41   19   59 1   
    42   20   21 1   
    43   20   60 1   
    44   20   61 1   
    45   21   22 1   
    46   21   62 1   
    47   21   63 1   
    48   22   64 1   
    49   22   65 1   
    50   22   66 1   
    51   23   25 1   
    52   24   25 2   
    53   25   26 1   
    54   26   27 1   
    55   26   67 1   
    56   26   68 1   
    57   27   28 1   
    58   27   69 1   
    59   27   70 1   
    60   28   29 1   
    61   28   71 1   
    62   28   72 1   
    63   29   30 1   
    64   29   73 1   
    65   29   74 1   
    66   30   31 1   
    67   30   75 1   
    68   30   76 1   
    69   31   32 1   
    70   31   77 1   
    71   31   78 1   
    72   32   33 1   
    73   32   79 1   
    74   32   80 1   
    75   33   34 1   
    76   33   81 1   
    77   33   82 1   
    78   34   35 1   
    79   34   83 1   
    80   34   84 1   
    81   35   36 1   
    82   35   85 1   
    83   35   86 1   
    84   36   37 1   
    85   36   87 1   
    86   36   88 1   
    87   37   38 1   
    88   37   89 1   
    89   37   90 1   
    90   38   91 1   
    91   38   92 1   
    92   38   93 1   
@<TRIPOS>SUBSTRUCTURE
     1 7PH         1 TEMP              0 ****  ****    0 ROOT
