@<TRIPOS>MOLECULE
7PH
   93    92     1     0     0
SMALL
bcc


@<TRIPOS>ATOM
      1 P          -2.4340    1.1800   -2.1560 p5        1 7PH      1.431800
      2 O12        -2.9110    1.3670   -0.7700 o         1 7PH     -0.840500
      3 O13        -3.4820    0.1050   -2.8100 oh        1 7PH     -0.791400
      4 O14        -2.1580    2.2550   -3.1290 o         1 7PH     -0.840500
      5 O11        -1.1140    0.1880   -2.0920 os        1 7PH     -0.591200
      6 C1         -1.1430   -0.8820   -1.1980 c3        1 7PH      0.189400
      7 C2         -1.0510   -2.2100   -1.9690 c3        1 7PH      0.118100
      8 C3         -0.3370   -3.3270   -1.2110 c3        1 7PH      0.143400
      9 O31        -0.9960   -3.5760    0.0180 os        1 7PH     -0.477900
     10 O32         0.5460   -5.1890    0.2660 o         1 7PH     -0.574000
     11 C31        -0.4780   -4.6560    0.7760 c2        1 7PH      0.430100
     12 C32        -1.1920   -4.9230    1.9300 c2        1 7PH     -0.599200
     13 C33        -0.8040   -6.0030    2.8360 c3        1 7PH      0.076800
     14 C34        -0.5020   -5.4930    4.2400 c3        1 7PH     -0.084400
     15 C35        -0.1380   -6.6220    5.1810 c3        1 7PH     -0.077400
     16 C36         0.1640   -6.1120    6.5750 c3        1 7PH     -0.079400
     17 C37         0.5300   -7.2420    7.5140 c3        1 7PH     -0.078400
     18 C38         0.8320   -6.7300    8.9060 c3        1 7PH     -0.079400
     19 C39         1.1980   -7.8610    9.8440 c3        1 7PH     -0.078400
     20 C3A         1.4990   -7.3480   11.2350 c3        1 7PH     -0.079400
     21 C3B         1.8660   -8.4770   12.1740 c3        1 7PH     -0.080400
     22 C3C         2.1670   -7.9710   13.5610 c3        1 7PH     -0.091100
     23 O21        -2.4200   -2.5840   -2.2470 os        1 7PH     -0.411900
     24 O22        -1.7700   -3.6920   -4.1000 o         1 7PH     -0.583000
     25 C21        -2.6840   -3.2970   -3.3670 c         1 7PH      0.647100
     26 C22        -4.1580   -3.5140   -3.5720 c3        1 7PH     -0.126400
     27 C23        -4.6980   -2.4890   -4.5490 c3        1 7PH     -0.097400
     28 C24        -6.1910   -2.6520   -4.7320 c3        1 7PH     -0.070400
     29 C25        -6.7350   -1.6090   -5.6850 c3        1 7PH     -0.082400
     30 C26        -8.2320   -1.7500   -5.8610 c3        1 7PH     -0.076400
     31 C27        -8.7740   -0.7030   -6.8110 c3        1 7PH     -0.080400
     32 C28       -10.2710   -0.8390   -6.9850 c3        1 7PH     -0.078400
     33 C29       -10.8120    0.2080   -7.9340 c3        1 7PH     -0.079400
     34 C2A       -12.3090    0.0730   -8.1100 c3        1 7PH     -0.078400
     35 C2B       -12.8490    1.1210   -9.0590 c3        1 7PH     -0.079400
     36 C2C       -14.3470    0.9860   -9.2340 c3        1 7PH     -0.078400
     37 C2D       -14.8880    2.0340  -10.1830 c3        1 7PH     -0.080400
     38 C2E       -16.3780    1.9040  -10.3610 c3        1 7PH     -0.091100
     39 H1         -0.2380   -0.8180   -0.5310 h1        1 7PH      0.051700
     40 H1A        -2.0730   -0.8510   -0.5660 h1        1 7PH      0.051700
     41 H2         -0.5140   -2.0440   -2.9450 h1        1 7PH      0.070700
     42 H3          0.7240   -3.0180   -1.0160 h1        1 7PH      0.032700
     43 H3A        -0.3340   -4.2590   -1.8370 h1        1 7PH      0.032700
     44 H32        -2.0670   -4.3230    2.1810 ha        1 7PH      0.100000
     45 H32A       -3.6800   -0.6110   -2.2150 ho        1 7PH      0.429000
     46 H33         0.1000   -6.5410    2.4420 hc        1 7PH     -0.008800
     47 H33A       -1.6290   -6.7690    2.9260 hc        1 7PH     -0.008800
     48 H34         0.3410   -4.7570    4.1890 hc        1 7PH      0.029200
     49 H34A       -1.3960   -4.9460    4.6380 hc        1 7PH      0.029200
     50 H35         0.7560   -7.1680    4.7800 hc        1 7PH      0.025700
     51 H35A       -0.9820   -7.3600    5.2280 hc        1 7PH      0.025700
     52 H36         1.0080   -5.3750    6.5280 hc        1 7PH      0.034700
     53 H36A       -0.7290   -5.5650    6.9760 hc        1 7PH      0.034700
     54 H37        -0.3140   -7.9800    7.5590 hc        1 7PH      0.033200
     55 H37A        1.4240   -7.7890    7.1120 hc        1 7PH      0.033200
     56 H38         1.6760   -5.9920    8.8590 hc        1 7PH      0.037700
     57 H38A       -0.0620   -6.1840    9.3060 hc        1 7PH      0.037700
     58 H39         2.0920   -8.4070    9.4420 hc        1 7PH      0.036200
     59 H39A        0.3540   -8.5990    9.8900 hc        1 7PH      0.036200
     60 H3AA        0.6050   -6.8010   11.6360 hc        1 7PH      0.038200
     61 H3AB        2.3430   -6.6100   11.1890 hc        1 7PH      0.038200
     62 H3B         2.7590   -9.0230   11.7700 hc        1 7PH      0.036200
     63 H3BA        1.0210   -9.2150   12.2170 hc        1 7PH      0.036200
     64 H3C         1.2790   -7.4450   13.9890 hc        1 7PH      0.027700
     65 H3CA        3.0220   -7.2530   13.5410 hc        1 7PH      0.027700
     66 H3CB        2.4340   -8.8190   14.2370 hc        1 7PH      0.027700
     67 H22        -4.3080   -4.5530   -3.9630 hc        1 7PH      0.061200
     68 H22A       -4.6850   -3.4240   -2.5860 hc        1 7PH      0.061200
     69 H23        -4.4660   -1.4540   -4.1670 hc        1 7PH      0.077700
     70 H23A       -4.1780   -2.6040   -5.5360 hc        1 7PH      0.077700
     71 H24        -6.7030   -2.5550   -3.7380 hc        1 7PH      0.029200
     72 H24A       -6.4180   -3.6780   -5.1240 hc        1 7PH      0.029200
     73 H25        -6.2280   -1.7090   -6.6800 hc        1 7PH      0.049200
     74 H25A       -6.4930   -0.5860   -5.2920 hc        1 7PH      0.049200
     75 H26        -8.4720   -2.7740   -6.2520 hc        1 7PH      0.032700
     76 H26A       -8.7370   -1.6500   -4.8640 hc        1 7PH      0.032700
     77 H27        -8.5310    0.3190   -6.4180 hc        1 7PH      0.041700
     78 H27A       -8.2680   -0.8020   -7.8070 hc        1 7PH      0.041700
     79 H28       -10.5130   -1.8630   -7.3770 hc        1 7PH      0.035700
     80 H28A      -10.7760   -0.7390   -5.9880 hc        1 7PH      0.035700
     81 H29       -10.3060    0.1090   -8.9310 hc        1 7PH      0.039700
     82 H29A      -10.5690    1.2310   -7.5420 hc        1 7PH      0.039700
     83 H2A       -12.8140    0.1730   -7.1130 hc        1 7PH      0.036700
     84 H2AA      -12.5510   -0.9500   -8.5010 hc        1 7PH      0.036700
     85 H2B       -12.6070    2.1440   -8.6660 hc        1 7PH      0.039200
     86 H2BA      -12.3430    1.0220  -10.0550 hc        1 7PH      0.039200
     87 H2C       -14.5890   -0.0370   -9.6270 hc        1 7PH      0.037700
     88 H2CA      -14.8520    1.0860   -8.2380 hc        1 7PH      0.037700
     89 H2D       -14.3790    1.9350  -11.1790 hc        1 7PH      0.037700
     90 H2DA      -14.6430    3.0560   -9.7890 hc        1 7PH      0.037700
     91 H2E       -16.7560    2.6850  -11.0640 hc        1 7PH      0.029033
     92 H2EA      -16.6400    0.9000  -10.7760 hc        1 7PH      0.029033
     93 H2EB      -16.9040    2.0250   -9.3830 hc        1 7PH      0.029033
@<TRIPOS>BOND
     1    1    2 1   
     2    1    3 1   
     3    1    4 1   
     4    1    5 1   
     5    3   45 1   
     6    5    6 1   
     7    6    7 1   
     8    6   39 1   
     9    6   40 1   
    10    7    8 1   
    11    7   23 1   
    12    7   41 1   
    13    8    9 1   
    14    8   42 1   
    15    8   43 1   
    16    9   11 1   
    17   10   11 1   
    18   11   12 2   
    19   12   13 1   
    20   12   44 1   
    21   13   14 1   
    22   13   46 1   
    23   13   47 1   
    24   14   15 1   
    25   14   48 1   
    26   14   49 1   
    27   15   16 1   
    28   15   50 1   
    29   15   51 1   
    30   16   17 1   
    31   16   52 1   
    32   16   53 1   
    33   17   18 1   
    34   17   54 1   
    35   17   55 1   
    36   18   19 1   
    37   18   56 1   
    38   18   57 1   
    39   19   20 1   
    40   19   58 1   
    41   19   59 1   
    42   20   21 1   
    43   20   60 1   
    44   20   61 1   
    45   21   22 1   
    46   21   62 1   
    47   21   63 1   
    48   22   64 1   
    49   22   65 1   
    50   22   66 1   
    51   23   25 1   
    52   24   25 2   
    53   25   26 1   
    54   26   27 1   
    55   26   67 1   
    56   26   68 1   
    57   27   28 1   
    58   27   69 1   
    59   27   70 1   
    60   28   29 1   
    61   28   71 1   
    62   28   72 1   
    63   29   30 1   
    64   29   73 1   
    65   29   74 1   
    66   30   31 1   
    67   30   75 1   
    68   30   76 1   
    69   31   32 1   
    70   31   77 1   
    71   31   78 1   
    72   32   33 1   
    73   32   79 1   
    74   32   80 1   
    75   33   34 1   
    76   33   81 1   
    77   33   82 1   
    78   34   35 1   
    79   34   83 1   
    80   34   84 1   
    81   35   36 1   
    82   35   85 1   
    83   35   86 1   
    84   36   37 1   
    85   36   87 1   
    86   36   88 1   
    87   37   38 1   
    88   37   89 1   
    89   37   90 1   
    90   38   91 1   
    91   38   92 1   
    92   38   93 1   
@<TRIPOS>SUBSTRUCTURE
     1 7PH         1 TEMP              0 ****  ****    0 ROOT
