@<TRIPOS>MOLECULE
7PH
   93    91     1     0     0
SMALL
bcc


@<TRIPOS>ATOM
      1 P           1.9420    3.5350    2.9030 p3        1 7PH      2.536000
      2 O12         1.2120    3.7660    4.2070 o         1 7PH     -1.246667
      3 O13         1.5470    4.5970    1.9100 o         1 7PH     -1.246667
      4 O14         3.4310    3.5980    3.1420 o         1 7PH     -1.246667
      5 O11         1.5580    2.1100    2.3300 o         1 7PH     -0.731000
      6 C1          1.5870    1.0020    3.2030 c3        1 7PH      0.077000
      7 C2          1.1160   -0.2110    2.4780 c3        1 7PH     -0.023000
      8 C3          2.1500   -1.2910    2.5860 c3        1 7PH     -0.013000
      9 O31         3.2750   -0.9720    1.7230 os        1 7PH     -0.302000
     10 O32         3.8530   -3.1970    1.6410 o         1 7PH     -0.405000
     11 C31         4.2250   -2.0300    1.5930 c2        1 7PH      0.340000
     12 C32         5.7080   -1.7050    1.3640 c3        1 7PH     -0.222000
     13 C33         6.3020   -2.6980    0.3720 c3        1 7PH     -0.120000
     14 C34         7.7510   -2.3040    0.0610 c3        1 7PH     -0.196000
     15 C35         8.3150   -3.2370   -1.0110 c3        1 7PH     -0.142000
     16 C36         9.6750   -2.7000   -1.4980 c3        1 7PH     -0.162000
     17 C37        10.1650   -3.5480   -2.7070 c3        1 7PH     -0.154000
     18 C38        11.4230   -2.8570   -3.3600 c3        1 7PH     -0.160000
     19 C39        11.7890   -3.5870   -4.6780 c3        1 7PH     -0.156000
     20 C3A        12.8990   -2.7980   -5.4130 c3        1 7PH     -0.159000
     21 C3B        13.1700   -3.4410   -6.7670 c3        1 7PH     -0.159000
     22 C3C        14.1930   -2.6010   -7.5370 c3        1 7PH     -0.208000
     23 O21        -0.1240   -0.6710    3.0610 os        1 7PH     -0.297000
     24 O22        -1.2340    0.5990    1.4810 o         1 7PH     -0.381000
     25 C21        -1.3100   -0.2710    2.3180 c2        1 7PH      0.328000
     26 C22        -2.6780   -0.9840    2.5830 c3        1 7PH     -0.157000
     27 C23        -3.7520    0.0670    2.8730 c3        1 7PH     -0.177000
     28 C24        -5.1150   -0.4470    2.3880 c3        1 7PH     -0.140000
     29 C25        -6.2350    0.5050    2.8900 c3        1 7PH     -0.201000
     30 C26        -7.3220    0.6740    1.7680 c3        1 7PH     -0.122000
     31 C27        -8.5670    1.3780    2.3550 c3        1 7PH     -0.198000
     32 C28        -9.2390    2.2390    1.2610 c3        1 7PH     -0.141000
     33 C29       -10.6990    2.4900    1.6330 c3        1 7PH     -0.161000
     34 C2A       -11.2960    3.5620    0.6860 c3        1 7PH     -0.155000
     35 C2B       -12.8330    3.5090    0.7500 c3        1 7PH     -0.159000
     36 C2C       -13.4290    4.6110   -0.1670 c3        1 7PH     -0.156000
     37 C2D       -14.9200    4.4000   -0.3050 c3        1 7PH     -0.161000
     38 C2E       -15.5270    5.5460   -1.1320 c3        1 7PH     -0.207000
     39 H1          2.5040    0.8590    3.5190 h1        1 7PH      0.047500
     40 H1A         1.0050    1.1720    3.9620 h1        1 7PH      0.047500
     41 H2          0.9710    0.0090    1.5310 h1        1 7PH      0.137000
     42 H3          2.4570   -1.3560    3.5110 h1        1 7PH      0.084500
     43 H3A         1.7620   -2.1400    2.3130 h1        1 7PH      0.084500
     44 H32         6.1950   -1.7660    2.2230 hc        1 7PH      0.174000
     45 H32A        5.7910   -0.8010    1.0070 hc        1 7PH      0.174000
     46 H33         5.7820   -2.6880   -0.4450 hc        1 7PH      0.062500
     47 H33A        6.2830   -3.5950    0.7580 hc        1 7PH      0.062500
     48 H34         7.7750   -1.3840   -0.2630 hc        1 7PH      0.130500
     49 H34A        8.2950   -2.3780    0.8800 hc        1 7PH      0.130500
     50 H35         7.6950   -3.2800   -1.7620 hc        1 7PH      0.057500
     51 H35A        8.4340   -4.1390   -0.6310 hc        1 7PH      0.057500
     52 H36        10.3260   -2.7600   -0.7740 hc        1 7PH      0.091500
     53 H36A        9.5780   -1.7780   -1.7700 hc        1 7PH      0.091500
     54 H37        10.4100   -4.4510   -2.3960 hc        1 7PH      0.068000
     55 H37A        9.4420   -3.6150   -3.3750 hc        1 7PH      0.068000
     56 H38        12.1750   -2.9040   -2.7430 hc        1 7PH      0.082500
     57 H38A       11.2160   -1.9150   -3.5530 hc        1 7PH      0.082500
     58 H39        10.9950   -3.6460   -5.2510 hc        1 7PH      0.072000
     59 H39A       12.1100   -4.4860   -4.4740 hc        1 7PH      0.072000
     60 H3AA       12.6090   -1.8730   -5.5430 hc        1 7PH      0.080000
     61 H3AB       13.7160   -2.8100   -4.8770 hc        1 7PH      0.080000
     62 H3B        13.5230   -4.3420   -6.6350 hc        1 7PH      0.073500
     63 H3BA       12.3370   -3.4890   -7.2780 hc        1 7PH      0.073500
     64 H3C        13.8640   -1.6750   -7.6170 hc        1 7PH      0.066333
     65 H3CA       15.0470   -2.6030   -7.0550 hc        1 7PH      0.066333
     66 H3CB       14.3220   -2.9810   -8.4320 hc        1 7PH      0.066333
     67 H22        -2.5910   -1.5810    3.3520 hc        1 7PH      0.082500
     68 H22A       -2.9360   -1.5060    1.7880 hc        1 7PH      0.082500
     69 H23        -3.7910    0.2350    3.8310 hc        1 7PH      0.119500
     70 H23A       -3.5330    0.8900    2.4090 hc        1 7PH      0.119500
     71 H24        -5.2700   -1.3500    2.7430 hc        1 7PH      0.054500
     72 H24A       -5.1240   -0.4750    1.4130 hc        1 7PH      0.054500
     73 H25        -6.6520    0.1240    3.6960 hc        1 7PH      0.136000
     74 H25A       -5.8460    1.3850    3.1060 hc        1 7PH      0.136000
     75 H26        -6.9550    1.2160    1.0360 hc        1 7PH      0.039500
     76 H26A       -7.5780   -0.2080    1.4250 hc        1 7PH      0.039500
     77 H27        -8.2960    1.9530    3.1020 hc        1 7PH      0.134000
     78 H27A       -9.2020    0.7050    2.6760 hc        1 7PH      0.134000
     79 H28        -9.1970    1.7700    0.4070 hc        1 7PH      0.053000
     80 H28A       -8.7710    3.0950    1.1860 hc        1 7PH      0.053000
     81 H29       -10.7500    2.8070    2.5600 hc        1 7PH      0.089500
     82 H29A      -11.2080    1.6550    1.5450 hc        1 7PH      0.089500
     83 H2A       -10.9900    4.4460    0.9620 hc        1 7PH      0.067000
     84 H2AA      -11.0000    3.3860   -0.2360 hc        1 7PH      0.067000
     85 H2B       -13.1450    2.6250    0.4450 hc        1 7PH      0.081000
     86 H2BA      -13.1260    3.6580    1.6720 hc        1 7PH      0.081000
     87 H2C       -13.2610    5.4830    0.2240 hc        1 7PH      0.072500
     88 H2CA      -13.0090    4.5630   -1.0500 hc        1 7PH      0.072500
     89 H2D       -15.0890    3.5460   -0.7580 hc        1 7PH      0.078000
     90 H2DA      -15.3280    4.3850    0.5760 hc        1 7PH      0.078000
     91 H2E       -15.4300    6.3870   -0.6430 hc        1 7PH      0.064000
     92 H2EA      -16.4850    5.3670   -1.2900 hc        1 7PH      0.064000
     93 H2EB      -15.0580    5.6130   -1.9960 hc        1 7PH      0.064000
@<TRIPOS>BOND
     1    1    2 1   
     2    1    3 1   
     3    1    4 1   
     4    5    6 1   
     5    6    7 1   
     6    6   39 1   
     7    6   40 1   
     8    7    8 1   
     9    7   23 1   
    10    7   41 1   
    11    8    9 1   
    12    8   42 1   
    13    8   43 1   
    14    9   11 1   
    15   10   11 1   
    16   11   12 1   
    17   12   13 1   
    18   12   44 1   
    19   12   45 1   
    20   13   14 1   
    21   13   46 1   
    22   13   47 1   
    23   14   15 1   
    24   14   48 1   
    25   14   49 1   
    26   15   16 1   
    27   15   50 1   
    28   15   51 1   
    29   16   17 1   
    30   16   52 1   
    31   16   53 1   
    32   17   18 1   
    33   17   54 1   
    34   17   55 1   
    35   18   19 1   
    36   18   56 1   
    37   18   57 1   
    38   19   20 1   
    39   19   58 1   
    40   19   59 1   
    41   20   21 1   
    42   20   60 1   
    43   20   61 1   
    44   21   22 1   
    45   21   62 1   
    46   21   63 1   
    47   22   64 1   
    48   22   65 1   
    49   22   66 1   
    50   23   25 1   
    51   24   25 1   
    52   25   26 1   
    53   26   27 1   
    54   26   67 1   
    55   26   68 1   
    56   27   28 1   
    57   27   69 1   
    58   27   70 1   
    59   28   29 1   
    60   28   71 1   
    61   28   72 1   
    62   29   30 1   
    63   29   73 1   
    64   29   74 1   
    65   30   31 1   
    66   30   75 1   
    67   30   76 1   
    68   31   32 1   
    69   31   77 1   
    70   31   78 1   
    71   32   33 1   
    72   32   79 1   
    73   32   80 1   
    74   33   34 1   
    75   33   81 1   
    76   33   82 1   
    77   34   35 1   
    78   34   83 1   
    79   34   84 1   
    80   35   36 1   
    81   35   85 1   
    82   35   86 1   
    83   36   37 1   
    84   36   87 1   
    85   36   88 1   
    86   37   38 1   
    87   37   89 1   
    88   37   90 1   
    89   38   91 1   
    90   38   92 1   
    91   38   93 1   
@<TRIPOS>SUBSTRUCTURE
     1 7PH         1 TEMP              0 ****  ****    0 ROOT
