@<TRIPOS>MOLECULE
7PH
   93    92     1     0     0
SMALL
bcc


@<TRIPOS>ATOM
      1 P           4.8910    2.1570    0.5990 p5        1 7PH      1.321900
      2 O12         4.9870    2.4930   -0.8720 o         1 7PH     -0.912833
      3 O13         5.4170    0.8000    0.9720 o         1 7PH     -0.912833
      4 O14         5.1020    3.3000    1.5440 o         1 7PH     -0.912833
      5 O11         3.1740    1.9020    0.7000 os        1 7PH     -0.566200
      6 C1          2.4130    3.0290    0.8120 c3        1 7PH      0.225400
      7 C2          1.4540    3.2600   -0.3890 c3        1 7PH      0.075100
      8 C3          2.1860    3.2660   -1.7320 c3        1 7PH      0.066400
      9 O31         1.5620    2.4440   -2.7210 os        1 7PH     -0.448900
     10 O32         1.4160    0.6010   -3.8290 o         1 7PH     -0.614000
     11 C31         1.9260    1.1200   -2.8220 c         1 7PH      0.666100
     12 C32         2.7620    0.4970   -1.7730 c3        1 7PH     -0.239400
     13 C33         3.1860   -0.9280   -2.0340 c3        1 7PH     -0.036400
     14 C34         4.0330   -1.4040   -0.8660 c3        1 7PH     -0.123400
     15 C35         5.3360   -2.0410   -1.3000 c3        1 7PH     -0.046400
     16 C36         6.2790   -2.1350   -0.1180 c3        1 7PH     -0.115400
     17 C37         7.6580   -2.5910   -0.5400 c3        1 7PH     -0.064400
     18 C38         8.5970   -2.6460    0.6470 c3        1 7PH     -0.082400
     19 C39         9.9940   -3.0580    0.2330 c3        1 7PH     -0.076400
     20 C3A        10.9290   -3.1120    1.4220 c3        1 7PH     -0.080400
     21 C3B        12.3290   -3.5150    1.0100 c3        1 7PH     -0.080400
     22 C3C        13.2620   -3.5710    2.1920 c3        1 7PH     -0.089100
     23 O21         0.4860    2.1870   -0.3750 os        1 7PH     -0.394900
     24 O22        -1.2360    3.6370   -0.5830 o         1 7PH     -0.600000
     25 C21        -0.8220    2.4710   -0.5520 c         1 7PH      0.640100
     26 C22        -1.6490    1.2210   -0.6830 c3        1 7PH     -0.140400
     27 C23        -3.0760    1.4540   -0.2420 c3        1 7PH     -0.074400
     28 C24        -3.9300    0.2330   -0.5070 c3        1 7PH     -0.079400
     29 C25        -5.3570    0.4540   -0.0530 c3        1 7PH     -0.078400
     30 C26        -6.2150   -0.7640   -0.3220 c3        1 7PH     -0.079400
     31 C27        -7.6420   -0.5440    0.1320 c3        1 7PH     -0.078400
     32 C28        -8.5000   -1.7620   -0.1370 c3        1 7PH     -0.079400
     33 C29        -9.9270   -1.5420    0.3160 c3        1 7PH     -0.078400
     34 C2A       -10.7840   -2.7600    0.0470 c3        1 7PH     -0.079400
     35 C2B       -12.2120   -2.5390    0.5000 c3        1 7PH     -0.078400
     36 C2C       -13.0690   -3.7570    0.2310 c3        1 7PH     -0.079400
     37 C2D       -14.4970   -3.5380    0.6840 c3        1 7PH     -0.080400
     38 C2E       -15.3540   -4.7490    0.4180 c3        1 7PH     -0.091100
     39 H1          1.7480    2.9560    1.7240 h1        1 7PH      0.011700
     40 H1A         3.0590    3.9510    0.8940 h1        1 7PH      0.011700
     41 H2          0.9230    4.2390   -0.2370 h1        1 7PH      0.038700
     42 H3          2.1140    4.2910   -2.1900 h1        1 7PH      0.109200
     43 H3A         3.2830    2.9940   -1.5620 h1        1 7PH      0.109200
     44 H32         3.7040    1.1290   -1.5820 hc        1 7PH      0.158200
     45 H32A        2.1820    0.5630   -0.8040 hc        1 7PH      0.158200
     46 H33         2.2870   -1.5850   -2.1640 hc        1 7PH      0.009200
     47 H33A        3.7620   -0.9780   -2.9940 hc        1 7PH      0.009200
     48 H34         4.2910   -0.5200   -0.1840 hc        1 7PH      0.085700
     49 H34A        3.4490   -2.1350   -0.2500 hc        1 7PH      0.085700
     50 H35         5.1570   -3.0560   -1.7420 hc        1 7PH      0.006700
     51 H35A        5.8110   -1.4100   -2.0980 hc        1 7PH      0.006700
     52 H36         6.3290   -1.1140    0.3760 hc        1 7PH      0.086700
     53 H36A        5.8630   -2.8500    0.6390 hc        1 7PH      0.086700
     54 H37         7.6030   -3.6030   -1.0230 hc        1 7PH      0.016700
     55 H37A        8.0670   -1.8810   -1.3060 hc        1 7PH      0.016700
     56 H38         8.6260   -1.6360    1.1370 hc        1 7PH      0.047700
     57 H38A        8.2020   -3.3710    1.4060 hc        1 7PH      0.047700
     58 H39         9.9610   -4.0630   -0.2650 hc        1 7PH      0.028700
     59 H39A       10.3890   -2.3290   -0.5230 hc        1 7PH      0.028700
     60 H3AA       10.9580   -2.1060    1.9190 hc        1 7PH      0.040700
     61 H3AB       10.5350   -3.8410    2.1770 hc        1 7PH      0.040700
     62 H3B        12.2960   -4.5190    0.5080 hc        1 7PH      0.032200
     63 H3BA       12.7200   -2.7830    0.2560 hc        1 7PH      0.032200
     64 H3C        13.3230   -2.5730    2.6900 hc        1 7PH      0.024700
     65 H3CA       12.9010   -4.3140    2.9440 hc        1 7PH      0.024700
     66 H3CB       14.2880   -3.8680    1.8670 hc        1 7PH      0.024700
     67 H22        -1.6120    0.9140   -1.7630 hc        1 7PH      0.080200
     68 H22A       -1.1750    0.4010   -0.0820 hc        1 7PH      0.080200
     69 H23        -3.0940    1.7000    0.8520 hc        1 7PH      0.048700
     70 H23A       -3.4930    2.3430   -0.7860 hc        1 7PH      0.048700
     71 H24        -3.9160   -0.0050   -1.6040 hc        1 7PH      0.040200
     72 H24A       -3.4970   -0.6530    0.0280 hc        1 7PH      0.040200
     73 H25        -5.3700    0.6890    1.0440 hc        1 7PH      0.037700
     74 H25A       -5.7870    1.3420   -0.5860 hc        1 7PH      0.037700
     75 H26        -6.2010   -0.9990   -1.4190 hc        1 7PH      0.039200
     76 H26A       -5.7840   -1.6520    0.2110 hc        1 7PH      0.039200
     77 H27        -7.6560   -0.3090    1.2290 hc        1 7PH      0.037200
     78 H27A       -8.0730    0.3440   -0.4010 hc        1 7PH      0.037200
     79 H28        -8.4860   -1.9960   -1.2340 hc        1 7PH      0.039200
     80 H28A       -8.0690   -2.6500    0.3960 hc        1 7PH      0.039200
     81 H29        -9.9410   -1.3070    1.4130 hc        1 7PH      0.038200
     82 H29A      -10.3580   -0.6530   -0.2160 hc        1 7PH      0.038200
     83 H2A       -10.7700   -2.9940   -1.0500 hc        1 7PH      0.039200
     84 H2AA      -10.3530   -3.6480    0.5800 hc        1 7PH      0.039200
     85 H2B       -12.2260   -2.3050    1.5970 hc        1 7PH      0.038200
     86 H2BA      -12.6430   -1.6510   -0.0330 hc        1 7PH      0.038200
     87 H2C       -13.0550   -3.9930   -0.8660 hc        1 7PH      0.039200
     88 H2CA      -12.6380   -4.6460    0.7640 hc        1 7PH      0.039200
     89 H2D       -14.5090   -3.3020    1.7810 hc        1 7PH      0.037700
     90 H2DA      -14.9250   -2.6490    0.1500 hc        1 7PH      0.037700
     91 H2E       -15.3740   -4.9850   -0.6740 hc        1 7PH      0.030033
     92 H2EA      -14.9570   -5.6400    0.9610 hc        1 7PH      0.030033
     93 H2EB      -16.4020   -4.5660    0.7580 hc        1 7PH      0.030033
@<TRIPOS>BOND
     1    1    2 1   
     2    1    3 1   
     3    1    4 1   
     4    1    5 1   
     5    5    6 1   
     6    6    7 1   
     7    6   39 1   
     8    6   40 1   
     9    7    8 1   
    10    7   23 1   
    11    7   41 1   
    12    8    9 1   
    13    8   42 1   
    14    8   43 1   
    15    9   11 1   
    16   10   11 2   
    17   11   12 1   
    18   12   13 1   
    19   12   44 1   
    20   12   45 1   
    21   13   14 1   
    22   13   46 1   
    23   13   47 1   
    24   14   15 1   
    25   14   48 1   
    26   14   49 1   
    27   15   16 1   
    28   15   50 1   
    29   15   51 1   
    30   16   17 1   
    31   16   52 1   
    32   16   53 1   
    33   17   18 1   
    34   17   54 1   
    35   17   55 1   
    36   18   19 1   
    37   18   56 1   
    38   18   57 1   
    39   19   20 1   
    40   19   58 1   
    41   19   59 1   
    42   20   21 1   
    43   20   60 1   
    44   20   61 1   
    45   21   22 1   
    46   21   62 1   
    47   21   63 1   
    48   22   64 1   
    49   22   65 1   
    50   22   66 1   
    51   23   25 1   
    52   24   25 2   
    53   25   26 1   
    54   26   27 1   
    55   26   67 1   
    56   26   68 1   
    57   27   28 1   
    58   27   69 1   
    59   27   70 1   
    60   28   29 1   
    61   28   71 1   
    62   28   72 1   
    63   29   30 1   
    64   29   73 1   
    65   29   74 1   
    66   30   31 1   
    67   30   75 1   
    68   30   76 1   
    69   31   32 1   
    70   31   77 1   
    71   31   78 1   
    72   32   33 1   
    73   32   79 1   
    74   32   80 1   
    75   33   34 1   
    76   33   81 1   
    77   33   82 1   
    78   34   35 1   
    79   34   83 1   
    80   34   84 1   
    81   35   36 1   
    82   35   85 1   
    83   35   86 1   
    84   36   37 1   
    85   36   87 1   
    86   36   88 1   
    87   37   38 1   
    88   37   89 1   
    89   37   90 1   
    90   38   91 1   
    91   38   92 1   
    92   38   93 1   
@<TRIPOS>SUBSTRUCTURE
     1 7PH         1 TEMP              0 ****  ****    0 ROOT
