@<TRIPOS>MOLECULE
7PP
   53    55     1     0     0
SMALL
bcc


@<TRIPOS>ATOM
      1 Cl          0.7510    0.5060    0.0190 cl        1 7PP     -0.134000
      2 C1          2.3370    0.5960   -0.6130 ca        1 7PP      0.606300
      3 N5          3.2850    1.1660    0.1460 nb        1 7PP     -0.759000
      4 C21         4.5790    1.2400   -0.3850 ca        1 7PP      0.884900
      5 N4          5.5270    1.9420    0.3750 nv        1 7PP     -0.920500
      6 N3          4.9900    0.7380   -1.6050 nb        1 7PP     -0.770000
      7 C20         3.9900    0.1770   -2.3370 ca        1 7PP      0.490800
      8 C2          2.6040    0.0700   -1.8890 ca        1 7PP     -0.332400
      9 N1          4.0650   -0.3710   -3.6290 na        1 7PP     -0.165100
     10 C11         5.2600   -0.5520   -4.4030 c3        1 7PP     -0.002000
     11 C12         5.8270   -1.9630   -4.3570 ca        1 7PP      0.368600
     12 C18         7.1260   -2.1940   -3.8510 ca        1 7PP     -0.162600
     13 C19         7.9760   -1.1050   -3.3230 c3        1 7PP     -0.061800
     14 C16         7.6000   -3.5250   -3.8740 ca        1 7PP      0.117100
     15 O2          8.9130   -3.7770   -3.4950 os        1 7PP     -0.343900
     16 C17         9.0320   -4.3190   -2.1790 c3        1 7PP      0.115700
     17 C14         6.7940   -4.5610   -4.3700 ca        1 7PP     -0.192600
     18 C15         7.2430   -5.9670   -4.4140 c3        1 7PP     -0.052800
     19 C13         5.5110   -4.2030   -4.8410 ca        1 7PP      0.400200
     20 N2          5.0340   -2.9520   -4.8400 nb        1 7PP     -0.662000
     21 C10         2.7940   -0.8550   -3.9710 cc        1 7PP     -0.060100
     22 C3          1.8760   -0.5910   -2.9500 cd        1 7PP      0.039100
     23 C4          0.5240   -0.9070   -2.9730 ch        1 7PP     -0.118300
     24 C5         -0.6420   -1.1840   -3.0060 c1        1 7PP     -0.119100
     25 C6         -2.0310   -1.5190   -3.0150 c3        1 7PP     -0.023300
     26 C7         -2.6720   -1.4930   -4.4150 c3        1 7PP      0.155800
     27 C9         -4.1420   -1.8830   -4.2840 c3        1 7PP     -0.105100
     28 C8         -2.5410   -0.1170   -5.0540 c3        1 7PP     -0.105100
     29 O1         -2.0170   -2.3990   -5.2990 oh        1 7PP     -0.589800
     30 HN4         6.4810    1.7590    0.1630 hn        1 7PP      0.423800
     31 HN4A        5.3120    2.0610    1.3390 hn        1 7PP      0.423800
     32 H11         6.0340    0.1830   -4.0420 h1        1 7PP      0.085200
     33 H11A        5.0130   -0.3060   -5.4790 h1        1 7PP      0.085200
     34 H19         8.9250   -1.5160   -2.8930 hc        1 7PP      0.058367
     35 H19A        7.4400   -0.5390   -2.5190 hc        1 7PP      0.058367
     36 H19B        8.2490   -0.3920   -4.1420 hc        1 7PP      0.058367
     37 H17        10.1310   -4.4930   -2.0630 h1        1 7PP      0.043700
     38 H17A        8.6620   -3.5840   -1.4240 h1        1 7PP      0.043700
     39 H17B        8.4660   -5.2790   -2.1000 h1        1 7PP      0.043700
     40 H15         6.8800   -6.5160   -3.5070 hc        1 7PP      0.052700
     41 H15A        8.3610   -6.0240   -4.4370 hc        1 7PP      0.052700
     42 H15B        6.8400   -6.4830   -5.3200 hc        1 7PP      0.052700
     43 H13         4.8320   -4.9760   -5.2460 h4        1 7PP      0.027100
     44 H10         2.6380   -1.3610   -4.9290 h4        1 7PP      0.195000
     45 H6         -2.1660   -2.5480   -2.5760 hc        1 7PP      0.062200
     46 H6A        -2.5930   -0.7950   -2.3600 hc        1 7PP      0.062200
     47 H9         -4.6850   -1.1380   -3.6570 hc        1 7PP      0.045867
     48 H9A        -4.6110   -1.9170   -5.2970 hc        1 7PP      0.045867
     49 H9B        -4.2380   -2.8910   -3.8150 hc        1 7PP      0.045867
     50 H8         -2.9700   -0.1370   -6.0840 hc        1 7PP      0.045867
     51 H8A        -3.0860    0.6350   -4.4390 hc        1 7PP      0.045867
     52 H8B        -1.4640    0.1690   -5.1210 hc        1 7PP      0.045867
     53 HO1        -2.0040   -3.2590   -4.8620 ho        1 7PP      0.398000
@<TRIPOS>BOND
     1    1    2 1   
     2    2    3 ar  
     3    2    8 ar  
     4    3    4 ar  
     5    4    5 1   
     6    4    6 ar  
     7    5   30 1   
     8    5   31 1   
     9    6    7 ar  
    10    7    8 ar  
    11    7    9 1   
    12    8   22 1   
    13    9   10 1   
    14    9   21 1   
    15   10   11 1   
    16   10   32 1   
    17   10   33 1   
    18   11   12 ar  
    19   11   20 ar  
    20   12   13 1   
    21   12   14 ar  
    22   13   34 1   
    23   13   35 1   
    24   13   36 1   
    25   14   15 1   
    26   14   17 ar  
    27   15   16 1   
    28   16   37 1   
    29   16   38 1   
    30   16   39 1   
    31   17   18 1   
    32   17   19 ar  
    33   18   40 1   
    34   18   41 1   
    35   18   42 1   
    36   19   20 ar  
    37   19   43 1   
    38   21   22 2   
    39   21   44 1   
    40   22   23 1   
    41   23   24 3   
    42   24   25 1   
    43   25   26 1   
    44   25   45 1   
    45   25   46 1   
    46   26   27 1   
    47   26   28 1   
    48   26   29 1   
    49   27   47 1   
    50   27   48 1   
    51   27   49 1   
    52   28   50 1   
    53   28   51 1   
    54   28   52 1   
    55   29   53 1   
@<TRIPOS>SUBSTRUCTURE
     1 7PP         1 TEMP              0 ****  ****    0 ROOT
