@<TRIPOS>MOLECULE
7PP
   54    56     1     0     0
SMALL
bcc


@<TRIPOS>ATOM
      1 CL          0.0750    0.4050   -0.1540 cl        1 7PP     -0.034000
      2 C1          1.7470    0.2670   -0.3740 ca        1 7PP      0.583300
      3 N5          2.5420    0.2590    0.7200 nb        1 7PP     -0.709000
      4 C21         3.8980    0.1570    0.4890 ca        1 7PP      0.682900
      5 N4          4.7380    0.1390    1.7250 n4        1 7PP     -0.808300
      6 N3          4.5800    0.0630   -0.6860 nb        1 7PP     -0.645000
      7 C20         3.7540    0.0580   -1.7720 ca        1 7PP      0.465800
      8 C2          2.2890    0.1620   -1.6720 ca        1 7PP     -0.248400
      9 N1          4.0920   -0.0050   -3.1300 na        1 7PP     -0.121100
     10 C11         5.3970   -0.3150   -3.6530 c3        1 7PP     -0.009000
     11 C12         5.8540   -1.7540   -3.5000 ca        1 7PP      0.354600
     12 C18         6.8670   -2.2150   -4.3720 ca        1 7PP     -0.172600
     13 C19         7.4650   -1.3410   -5.4040 c3        1 7PP     -0.059800
     14 C16         7.2800   -3.5570   -4.2310 ca        1 7PP      0.134100
     15 O2          8.1750   -4.0710   -5.1570 os        1 7PP     -0.336900
     16 C17         9.4960   -4.2660   -4.6490 c3        1 7PP      0.113700
     17 C14         6.7000   -4.3790   -3.2510 ca        1 7PP     -0.181600
     18 C15         7.0730   -5.7970   -3.0770 c3        1 7PP     -0.060800
     19 C13         5.7130   -3.7930   -2.4280 ca        1 7PP      0.400200
     20 N2          5.2970   -2.5230   -2.5330 nb        1 7PP     -0.677000
     21 C10         2.9020   -0.0110   -3.8660 cc        1 7PP     -0.045100
     22 C3          1.7860    0.1160   -3.0190 cd        1 7PP      0.082100
     23 C4          0.4580    0.1790   -3.4150 ch        1 7PP     -0.204300
     24 C5         -0.6930    0.2280   -3.7480 c1        1 7PP     -0.014100
     25 C6         -2.0690    0.2470   -4.1380 c3        1 7PP     -0.008300
     26 C7         -2.8570    1.4500   -3.5900 c3        1 7PP      0.156800
     27 C9         -4.2900    1.3810   -4.1060 c3        1 7PP     -0.127100
     28 C8         -2.2130    2.7680   -3.9970 c3        1 7PP     -0.127100
     29 O1         -2.8440    1.3140   -2.1680 oh        1 7PP     -0.604800
     30 HN4         4.4750   -0.6770    2.2900 hn        1 7PP      0.475467
     31 HN4A        4.5620    0.9960    2.2610 hn        1 7PP      0.475467
     32 H11         6.1510    0.3470   -3.1320 h1        1 7PP      0.090200
     33 H11A        5.3830   -0.0560   -4.7530 h1        1 7PP      0.090200
     34 H19         7.7620   -0.3550   -4.9660 hc        1 7PP      0.058700
     35 H19A        8.3740   -1.8200   -5.8490 hc        1 7PP      0.058700
     36 H19B        6.7330   -1.1590   -6.2320 hc        1 7PP      0.058700
     37 H17        10.0370   -4.7400   -5.5060 h1        1 7PP      0.049700
     38 H17A        9.9530   -3.2830   -4.3830 h1        1 7PP      0.049700
     39 H17B        9.4820   -4.9450   -3.7620 h1        1 7PP      0.049700
     40 H15         6.1870   -6.4040   -2.7620 hc        1 7PP      0.060700
     41 H15A        7.4710   -6.2200   -4.0340 hc        1 7PP      0.060700
     42 H15B        7.8630   -5.8970   -2.2900 hc        1 7PP      0.060700
     43 H13         5.2190   -4.3950   -1.6420 h4        1 7PP      0.029100
     44 H10         2.9230   -0.0890   -4.9580 h4        1 7PP      0.203000
     45 H6         -2.5650   -0.6960   -3.7710 hc        1 7PP      0.083700
     46 H6A        -2.1400    0.2670   -5.2620 hc        1 7PP      0.083700
     47 H9         -4.7780    0.4390   -3.7610 hc        1 7PP      0.049700
     48 H9A        -4.3010    1.4110   -5.2210 hc        1 7PP      0.049700
     49 H9B        -4.8780    2.2480   -3.7190 hc        1 7PP      0.049700
     50 H8         -1.1730    2.8260   -3.5960 hc        1 7PP      0.049700
     51 H8A        -2.8010    3.6250   -3.5900 hc        1 7PP      0.049700
     52 H8B        -2.1800    2.8510   -5.1090 hc        1 7PP      0.049700
     53 HO1        -3.4010    2.0190   -1.8170 ho        1 7PP      0.408000
     54 H43         5.7320    0.0810    1.4750 hn        1 7PP      0.475467
@<TRIPOS>BOND
     1    1    2 1   
     2    2    3 ar  
     3    2    8 ar  
     4    3    4 ar  
     5    4    5 1   
     6    4    6 ar  
     7    5   30 1   
     8    5   31 1   
     9    5   54 1   
    10    6    7 ar  
    11    7    8 ar  
    12    7    9 1   
    13    8   22 1   
    14    9   10 1   
    15    9   21 1   
    16   10   11 1   
    17   10   32 1   
    18   10   33 1   
    19   11   12 ar  
    20   11   20 ar  
    21   12   13 1   
    22   12   14 ar  
    23   13   34 1   
    24   13   35 1   
    25   13   36 1   
    26   14   15 1   
    27   14   17 ar  
    28   15   16 1   
    29   16   37 1   
    30   16   38 1   
    31   16   39 1   
    32   17   18 1   
    33   17   19 ar  
    34   18   40 1   
    35   18   41 1   
    36   18   42 1   
    37   19   20 ar  
    38   19   43 1   
    39   21   22 2   
    40   21   44 1   
    41   22   23 1   
    42   23   24 3   
    43   24   25 1   
    44   25   26 1   
    45   25   45 1   
    46   25   46 1   
    47   26   27 1   
    48   26   28 1   
    49   26   29 1   
    50   27   47 1   
    51   27   48 1   
    52   27   49 1   
    53   28   50 1   
    54   28   51 1   
    55   28   52 1   
    56   29   53 1   
@<TRIPOS>SUBSTRUCTURE
     1 7PP         1 TEMP              0 ****  ****    0 ROOT
