@<TRIPOS>MOLECULE
7PP
   53    55     1     0     0
SMALL
bcc


@<TRIPOS>ATOM
      1 CL         -2.7340    3.1180    0.1090 cl        1 7PP     -0.134000
      2 C1         -1.2630    2.7000   -0.6550 ca        1 7PP      0.606300
      3 N5         -0.4100    3.6890   -0.9650 nb        1 7PP     -0.759000
      4 C21         0.7880    3.3340   -1.5970 ca        1 7PP      0.884900
      5 N4          1.6100    4.3910   -2.0150 nh        1 7PP     -0.920500
      6 N3          1.2040    2.0510   -1.8950 nb        1 7PP     -0.770000
      7 C20         0.3020    1.0860   -1.5670 ca        1 7PP      0.490800
      8 C2         -0.9850    1.3490   -0.9280 ca        1 7PP     -0.332400
      9 N1          0.3970   -0.2990   -1.7850 na        1 7PP     -0.165100
     10 C11         1.5380   -0.9970   -2.3050 c3        1 7PP     -0.002000
     11 C12         2.4050   -1.6560   -1.2420 ca        1 7PP      0.367600
     12 C18         3.7570   -1.2760   -1.0870 ca        1 7PP     -0.162600
     13 C19         4.3840   -0.2210   -1.9130 c3        1 7PP     -0.061800
     14 C16         4.5100   -1.9580   -0.1050 ca        1 7PP      0.117100
     15 O2          5.8710   -1.6970   -0.0010 os        1 7PP     -0.343900
     16 C17         6.2060   -0.8450    1.0950 c3        1 7PP      0.115700
     17 C14         3.9180   -2.9570    0.6830 ca        1 7PP     -0.192600
     18 C15         4.6620   -3.6950    1.7230 c3        1 7PP     -0.052800
     19 C13         2.5560   -3.2390    0.4380 ca        1 7PP      0.400200
     20 N2          1.8160   -2.6190   -0.4890 nb        1 7PP     -0.662000
     21 C10        -0.7550   -0.9020   -1.2600 cc        1 7PP     -0.060100
     22 C3         -1.6260    0.0650   -0.7470 cd        1 7PP      0.039100
     23 C4         -2.8690   -0.1830   -0.1800 ch        1 7PP     -0.118300
     24 C5         -3.9410   -0.4100    0.3070 c1        1 7PP     -0.119100
     25 C6         -5.2280   -0.6510    0.8790 c3        1 7PP     -0.023300
     26 C7         -5.4290   -2.0910    1.3850 c3        1 7PP      0.155800
     27 C9         -4.3970   -2.4500    2.4460 c3        1 7PP     -0.105100
     28 C8         -6.8410   -2.2170    1.9490 c3        1 7PP     -0.105100
     29 O1         -5.2510   -3.0370    0.3330 oh        1 7PP     -0.590800
     30 HN4         1.4500    5.2690   -1.5750 hn        1 7PP      0.423800
     31 HN4A        2.5610    4.1630   -2.1930 hn        1 7PP      0.423800
     32 H11         1.1600   -1.8040   -3.0010 h1        1 7PP      0.085200
     33 H11A        2.1570   -0.2730   -2.9070 h1        1 7PP      0.085200
     34 H19         3.7970    0.7310   -1.8490 hc        1 7PP      0.058367
     35 H19A        5.4290   -0.0160   -1.5680 hc        1 7PP      0.058367
     36 H19B        4.4300   -0.5410   -2.9840 hc        1 7PP      0.058367
     37 H17         5.7420    0.1620    0.9580 h1        1 7PP      0.043700
     38 H17A        5.8740   -1.3000    2.0590 h1        1 7PP      0.043700
     39 H17B        7.3220   -0.7800    1.0470 h1        1 7PP      0.043700
     40 H15         4.4980   -3.2210    2.7240 hc        1 7PP      0.052700
     41 H15A        4.3150   -4.7570    1.7780 hc        1 7PP      0.052700
     42 H15B        5.7590   -3.6880    1.5040 hc        1 7PP      0.052700
     43 H13         2.0350   -4.0180    1.0250 h4        1 7PP      0.027100
     44 H10        -0.8680   -1.9900   -1.2890 h4        1 7PP      0.196000
     45 H6         -5.3870    0.0500    1.7470 hc        1 7PP      0.062200
     46 H6A        -6.0210   -0.4250    0.1120 hc        1 7PP      0.062200
     47 H9         -4.5200   -1.7810    3.3290 hc        1 7PP      0.045700
     48 H9A        -4.5340   -3.5110    2.7630 hc        1 7PP      0.045700
     49 H9B        -3.3680   -2.3300    2.0310 hc        1 7PP      0.045700
     50 H8         -7.5970   -1.9540    1.1710 hc        1 7PP      0.045700
     51 H8A        -7.0200   -3.2690    2.2770 hc        1 7PP      0.045700
     52 H8B        -6.9700   -1.5370    2.8230 hc        1 7PP      0.045700
     53 HO1        -5.8260   -2.7630   -0.3910 ho        1 7PP      0.398000
@<TRIPOS>BOND
     1    1    2 1   
     2    2    3 ar  
     3    2    8 ar  
     4    3    4 ar  
     5    4    5 1   
     6    4    6 ar  
     7    5   30 1   
     8    5   31 1   
     9    6    7 ar  
    10    7    8 ar  
    11    7    9 1   
    12    8   22 1   
    13    9   10 1   
    14    9   21 1   
    15   10   11 1   
    16   10   32 1   
    17   10   33 1   
    18   11   12 ar  
    19   11   20 ar  
    20   12   13 1   
    21   12   14 ar  
    22   13   34 1   
    23   13   35 1   
    24   13   36 1   
    25   14   15 1   
    26   14   17 ar  
    27   15   16 1   
    28   16   37 1   
    29   16   38 1   
    30   16   39 1   
    31   17   18 1   
    32   17   19 ar  
    33   18   40 1   
    34   18   41 1   
    35   18   42 1   
    36   19   20 ar  
    37   19   43 1   
    38   21   22 2   
    39   21   44 1   
    40   22   23 1   
    41   23   24 3   
    42   24   25 1   
    43   25   26 1   
    44   25   45 1   
    45   25   46 1   
    46   26   27 1   
    47   26   28 1   
    48   26   29 1   
    49   27   47 1   
    50   27   48 1   
    51   27   49 1   
    52   28   50 1   
    53   28   51 1   
    54   28   52 1   
    55   29   53 1   
@<TRIPOS>SUBSTRUCTURE
     1 7PP         1 TEMP              0 ****  ****    0 ROOT
