@<TRIPOS>MOLECULE
7PP
   53    45     1     0     0
SMALL
bcc


@<TRIPOS>ATOM
      1 CL         -3.6130   -4.1680    1.6720 cl        1 7PP      0.047000
      2 C1         -2.9660   -2.5040    1.7440 c2        1 7PP      0.109000
      3 N5         -2.8120   -2.4910    3.0900 n2        1 7PP     -0.234000
      4 C21        -2.1420   -1.4720    3.6880 c1        1 7PP      0.165000
      5 N4         -1.9430   -1.3840    5.1030 n2        1 7PP     -0.315000
      6 N3         -1.6100   -0.4360    2.9170 n2        1 7PP     -0.244000
      7 C20        -1.7610   -0.4460    1.5750 c1        1 7PP      0.100000
      8 C2         -2.4360   -1.4710    0.9720 c1        1 7PP     -0.190000
      9 N1         -1.3190    0.4170    0.5850 n1        1 7PP     -0.149000
     10 C11        -0.1900    1.3420    0.8070 c2        1 7PP      0.034000
     11 C12        -0.2850    2.5000   -0.1790 c2        1 7PP     -0.054000
     12 C18         0.7700    3.4040   -0.2880 c2        1 7PP     -0.090000
     13 C19         2.0400    3.1840    0.5210 c3        1 7PP     -0.188000
     14 C16         0.6150    4.5500   -1.0230 c1        1 7PP      0.072000
     15 O2          1.7040    5.4670   -1.1580 os        1 7PP     -0.225000
     16 C17         2.5630    5.1950   -2.2880 c3        1 7PP     -0.074000
     17 C14        -0.5660    4.8040   -1.6430 c1        1 7PP     -0.120000
     18 C15        -0.6960    6.0100   -2.5540 c3        1 7PP     -0.178000
     19 C13        -1.6180    3.8980   -1.5310 c1        1 7PP     -0.065000
     20 N2         -1.4620    2.7570   -0.8000 n1        1 7PP     -0.137000
     21 C10        -1.7210   -0.0780   -0.6140 c1        1 7PP     -0.041000
     22 C3         -2.4160   -1.2530   -0.3790 c1        1 7PP      0.000000
     23 C4         -1.5470   -2.4450   -0.7090 c1        1 7PP     -0.117000
     24 C5         -0.8610   -3.3900   -0.9750 c1        1 7PP     -0.117000
     25 C6          0.0230   -4.6140   -1.3250 c2        1 7PP     -0.039000
     26 C7          1.0440   -4.8600   -0.1870 c3        1 7PP      0.083000
     27 C9          1.5140   -6.3050   -0.2320 c3        1 7PP     -0.242500
     28 C8          2.2550   -3.9180   -0.3690 c3        1 7PP     -0.242500
     29 O1          0.4260   -4.6050    1.0690 oh        1 7PP     -0.322000
     30 HN4        -1.5580   -0.6270    5.4700 hn        1 7PP      0.217000
     31 HN4A       -2.1840   -2.0840    5.6440 hn        1 7PP      0.217000
     32 H11        -0.2270    1.6980    1.7470 ha        1 7PP      0.122500
     33 H11A        0.6300    0.8800    0.6760 ha        1 7PP      0.122500
     34 H19         2.2620    2.2370    0.5260 hc        1 7PP      0.098000
     35 H19A        2.7440    3.6670    0.1350 hc        1 7PP      0.098000
     36 H19B        1.8960    3.5000    1.4680 hc        1 7PP      0.098000
     37 H17         2.2080    4.4620   -2.7910 h1        1 7PP      0.082667
     38 H17A        3.4630    4.9670   -1.9660 h1        1 7PP      0.082667
     39 H17B        2.6120    5.9950   -2.8630 h1        1 7PP      0.082667
     40 H15        -1.4780    5.9140   -3.1060 hc        1 7PP      0.092000
     41 H15A        0.1050    6.0760   -3.1270 hc        1 7PP      0.092000
     42 H15B       -0.7780    6.8320   -2.0040 hc        1 7PP      0.092000
     43 H13        -2.4460    4.0750   -1.9650 ha        1 7PP      0.163000
     44 H10        -1.6240    0.3760   -1.4960 DU        1 7PP      0.190000
     45 H6         -0.5270   -5.3830   -1.4280 ha        1 7PP      0.109500
     46 H6A         0.5170   -4.4360   -2.1870 ha        1 7PP      0.109500
     47 H9          2.1300   -6.4710    0.5150 hc        1 7PP      0.084333
     48 H9A         0.7620   -6.8870   -0.1580 hc        1 7PP      0.084333
     49 H9B         1.9860   -6.4770   -1.1000 hc        1 7PP      0.084333
     50 H8          3.0380   -4.3140    0.0460 hc        1 7PP      0.084333
     51 H8A         2.0610   -3.0480    0.0560 hc        1 7PP      0.084333
     52 H8B         2.4270   -3.7830   -1.3250 hc        1 7PP      0.084333
     53 HO1         0.9900   -4.8590    1.7440 ho        1 7PP      0.198000
@<TRIPOS>BOND
     1    1    2 1   
     2    2    3 1   
     3    2    8 1   
     4    3    4 1   
     5    4    6 1   
     6    5   30 1   
     7    5   31 1   
     8    6    7 1   
     9    9   21 1   
    10   10   11 1   
    11   10   32 1   
    12   10   33 1   
    13   11   12 1   
    14   11   20 1   
    15   12   13 1   
    16   12   14 1   
    17   13   34 1   
    18   13   35 1   
    19   13   36 1   
    20   14   15 1   
    21   15   16 1   
    22   16   37 1   
    23   16   38 1   
    24   16   39 1   
    25   17   18 1   
    26   17   19 1   
    27   18   40 1   
    28   18   41 1   
    29   18   42 1   
    30   19   43 1   
    31   21   22 1   
    32   23   24 1   
    33   25   26 1   
    34   25   45 1   
    35   25   46 1   
    36   26   27 1   
    37   26   28 1   
    38   26   29 1   
    39   27   47 1   
    40   27   48 1   
    41   27   49 1   
    42   28   50 1   
    43   28   51 1   
    44   28   52 1   
    45   29   53 1   
@<TRIPOS>SUBSTRUCTURE
     1 7PP         1 TEMP              0 ****  ****    0 ROOT
