@<TRIPOS>MOLECULE
7PQ
   56    51     1     0     0
SMALL
bcc


@<TRIPOS>ATOM
      1 C1         -1.9940    0.2610   -1.8920 c1        1 7PQ     -0.124000
      2 C2         -0.5940    0.2210   -1.8490 c1        1 7PQ     -0.082000
      3 C3          0.0730    0.2660   -0.6120 c1        1 7PQ     -0.122000
      4 C4         -0.6640    0.3510    0.5780 c1        1 7PQ     -0.120500
      5 C5         -2.0640    0.3900    0.5310 c1        1 7PQ     -0.120500
      6 C6         -2.7280    0.3450   -0.7090 c1        1 7PQ     -0.021000
      7 C7         -4.2550    0.2230   -0.7520 c2        1 7PQ     -0.027000
      8 C8          1.6280    0.3270   -0.5700 c1        1 7PQ      0.340000
      9 O9          2.2750    0.2210   -1.6140 o         1 7PQ     -0.356000
     10 N10         2.3080    0.3760    0.6940 n2        1 7PQ     -0.375000
     11 C11         3.6160    0.8210    0.7600 c3        1 7PQ     -0.031000
     12 C12         4.5570   -0.3820    1.0570 c3        1 7PQ     -0.091000
     13 N13         5.9440    0.0780    1.1020 n3        1 7PQ     -0.251000
     14 C14         6.2440    0.5580    2.4050 c3        1 7PQ     -0.103000
     15 C15         7.7060    0.9190    2.5650 c3        1 7PQ     -0.024000
     16 O16         8.5880   -0.1460    2.1510 os        1 7PQ     -0.272000
     17 C17         8.2920   -0.6240    0.8450 c3        1 7PQ     -0.024000
     18 C18         6.8190   -0.9880    0.6850 c3        1 7PQ     -0.103000
     19 C19        -4.7910   -1.0830   -0.8310 c1        1 7PQ     -0.021000
     20 C20        -6.1630   -1.2640   -0.8340 c1        1 7PQ     -0.038000
     21 C21        -7.0300   -0.1430   -0.7580 c1        1 7PQ     -0.113500
     22 C22        -6.5060    1.1330   -0.6800 c1        1 7PQ     -0.131000
     23 C23        -5.1120    1.3240   -0.6760 c2        1 7PQ     -0.102000
     24 C24        -3.9240   -2.2110   -0.9300 c1        1 7PQ     -0.124000
     25 C25        -4.4570   -3.4840   -1.0280 c1        1 7PQ     -0.120500
     26 C26        -5.8550   -3.6630   -1.0300 c1        1 7PQ     -0.120500
     27 C27        -6.7020   -2.5530   -0.9330 c1        1 7PQ     -0.113500
     28 C28        -4.6660    2.5600   -1.4520 c3        1 7PQ     -0.057000
     29 N29        -5.5440    3.6240   -1.1810 n3        1 7PQ     -0.329000
     30 H1         -2.4510    0.2280   -2.7420 ha        1 7PQ      0.144000
     31 H2         -0.1000    0.1660   -2.6510 ha        1 7PQ      0.158000
     32 H3         -0.1920    0.3810    1.4560 ha        1 7PQ      0.136500
     33 H4         -2.5930    0.4530    1.3810 ha        1 7PQ      0.136500
     34 H5          1.8850    0.0910    1.4480 hn        1 7PQ      0.219000
     35 H6          3.6980    1.4860    1.4780 h1        1 7PQ      0.110500
     36 H7          3.8730    1.2420   -0.1170 h1        1 7PQ      0.110500
     37 H8          4.3090   -0.7980    1.9510 h1        1 7PQ      0.075500
     38 H9          4.4600   -1.0530    0.3470 h1        1 7PQ      0.075500
     39 H11         6.0180   -0.1260    3.0520 h1        1 7PQ      0.079500
     40 H12         5.6860    1.3760    2.5850 h1        1 7PQ      0.079500
     41 H13         7.9000    1.7280    2.0180 h1        1 7PQ      0.094000
     42 H14         7.8760    1.1230    3.5010 h1        1 7PQ      0.094000
     43 H15         8.5220    0.0810    0.1850 h1        1 7PQ      0.094000
     44 H16         8.8490   -1.4330    0.6620 h1        1 7PQ      0.094000
     45 H17         6.6350   -1.1980   -0.2870 h1        1 7PQ      0.079500
     46 H18         6.6290   -1.7960    1.2310 h1        1 7PQ      0.079500
     47 H19        -8.0600   -0.2830   -0.7620 ha        1 7PQ      0.135000
     48 H20        -7.1110    1.9120   -0.6310 ha        1 7PQ      0.134000
     49 H21        -2.9690   -2.0870   -0.9330 ha        1 7PQ      0.144000
     50 H22        -3.8440   -4.2820   -1.0950 ha        1 7PQ      0.136500
     51 H23        -6.2100   -4.5080   -1.0930 ha        1 7PQ      0.136500
     52 H24        -7.7080   -2.6810   -0.9380 ha        1 7PQ      0.135000
     53 H25        -3.7480    2.8100   -1.1750 h1        1 7PQ      0.106500
     54 H26        -4.6760    2.3610   -2.4410 h1        1 7PQ      0.106500
     55 H27        -6.3880    3.3080   -1.1130 hn        1 7PQ      0.141000
     56 H28        -5.2930    4.0420   -0.3600 hn        1 7PQ      0.141000
@<TRIPOS>BOND
     1    1    6 1   
     2    1   30 1   
     3    2    3 1   
     4    2   31 1   
     5    3    8 1   
     6    4    5 1   
     7    4   32 1   
     8    5   33 1   
     9    6    7 1   
    10    7   19 1   
    11    7   23 1   
    12    8    9 1   
    13   10   11 1   
    14   10   34 1   
    15   11   12 1   
    16   11   35 1   
    17   11   36 1   
    18   12   13 1   
    19   12   37 1   
    20   12   38 1   
    21   13   14 1   
    22   13   18 1   
    23   14   15 1   
    24   14   39 1   
    25   14   40 1   
    26   15   16 1   
    27   15   41 1   
    28   15   42 1   
    29   16   17 1   
    30   17   18 1   
    31   17   43 1   
    32   17   44 1   
    33   18   45 1   
    34   18   46 1   
    35   19   24 1   
    36   20   21 1   
    37   20   27 1   
    38   21   47 1   
    39   22   23 1   
    40   22   48 1   
    41   23   28 1   
    42   24   49 1   
    43   25   26 1   
    44   25   50 1   
    45   26   51 1   
    46   27   52 1   
    47   28   29 1   
    48   28   53 1   
    49   28   54 1   
    50   29   55 1   
    51   29   56 1   
@<TRIPOS>SUBSTRUCTURE
     1 7PQ         1 TEMP              0 ****  ****    0 ROOT
