@<TRIPOS>MOLECULE
7PQ
   56    59     1     0     0
SMALL
bcc


@<TRIPOS>ATOM
      1 C1         -2.0050   -0.2820    1.4560 ca        1 7PQ     -0.130500
      2 C2         -0.6480   -0.1470    1.7400 ca        1 7PQ     -0.095500
      3 C3          0.2910   -0.1530    0.7020 ca        1 7PQ     -0.140600
      4 C4         -0.1350   -0.3110   -0.6200 ca        1 7PQ     -0.095500
      5 C5         -1.4920   -0.4530   -0.9030 ca        1 7PQ     -0.130500
      6 C6         -2.4370   -0.4330    0.1310 cp        1 7PQ     -0.019000
      7 C7         -3.8670   -0.5810   -0.1710 cp        1 7PQ     -0.043000
      8 C8          1.7340   -0.0220    1.0560 c         1 7PQ      0.668700
      9 O9          2.2090   -0.5800    2.0660 o         1 7PQ     -0.601100
     10 N10         2.5110    0.7890    0.2510 n         1 7PQ     -0.566900
     11 C11         3.9260    0.9360    0.4380 c3        1 7PQ      0.086000
     12 C12         4.7630    0.0860   -0.5490 c3        1 7PQ      0.142800
     13 N13         6.1770    0.4370   -0.5210 n3        1 7PQ     -0.724600
     14 C14         6.8930   -0.1470   -1.6510 c3        1 7PQ      0.130300
     15 C15         8.3980    0.1390   -1.6030 c3        1 7PQ      0.126400
     16 O16         8.9660   -0.2470   -0.3580 os        1 7PQ     -0.414600
     17 C17         8.3220    0.3850    0.7420 c3        1 7PQ      0.126400
     18 C18         6.8130    0.1140    0.7510 c3        1 7PQ      0.130300
     19 C19        -4.6760    0.5900   -0.3070 ca        1 7PQ     -0.021000
     20 C20        -6.0570    0.4480   -0.5990 ca        1 7PQ     -0.038000
     21 C21        -6.6080   -0.8530   -0.7440 ca        1 7PQ     -0.113000
     22 C22        -5.8150   -1.9640   -0.6090 ca        1 7PQ     -0.114000
     23 C23        -4.4310   -1.8350   -0.3280 ca        1 7PQ     -0.058300
     24 C24        -4.1400    1.9000   -0.1600 ca        1 7PQ     -0.119000
     25 C25        -4.9410    3.0070   -0.2980 ca        1 7PQ     -0.125000
     26 C26        -6.3180    2.8620   -0.5910 ca        1 7PQ     -0.127000
     27 C27        -6.8640    1.6110   -0.7370 ca        1 7PQ     -0.117000
     28 C28        -3.6030   -3.0850   -0.2180 c3        1 7PQ      0.199100
     29 N29        -3.3070   -3.4540    1.1480 n3        1 7PQ     -0.907800
     30 H1         -2.7420   -0.2680    2.2730 ha        1 7PQ      0.147500
     31 H2         -0.3010   -0.0440    2.7820 ha        1 7PQ      0.146000
     32 H3          0.5930   -0.3420   -1.4450 ha        1 7PQ      0.146000
     33 H4         -1.8250   -0.5810   -1.9440 ha        1 7PQ      0.147500
     34 H5          2.1200    1.1510   -0.5850 hn        1 7PQ      0.309500
     35 H6          4.1840    2.0260    0.3030 h1        1 7PQ      0.070700
     36 H7          4.1810    0.6350    1.4940 h1        1 7PQ      0.070700
     37 H8          4.5960   -1.0060   -0.3150 h1        1 7PQ      0.036200
     38 H9          4.3930    0.2710   -1.5980 h1        1 7PQ      0.036200
     39 H11         6.7440   -1.2660   -1.7030 h1        1 7PQ      0.042700
     40 H12         6.4750    0.3030   -2.5930 h1        1 7PQ      0.042700
     41 H13         8.9330   -0.4890   -2.3620 h1        1 7PQ      0.054450
     42 H14         8.6000    1.2260   -1.7880 h1        1 7PQ      0.054450
     43 H15         8.8000   -0.0740    1.6470 h1        1 7PQ      0.054450
     44 H16         8.5270    1.4870    0.7140 h1        1 7PQ      0.054450
     45 H17         6.3440    0.7620    1.5430 h1        1 7PQ      0.042700
     46 H18         6.6440   -0.9650    1.0380 h1        1 7PQ      0.042700
     47 H19        -7.6820   -0.9510   -0.9620 ha        1 7PQ      0.136000
     48 H20        -6.2420   -2.9740   -0.7110 ha        1 7PQ      0.141000
     49 H21        -3.0680    2.0080    0.0700 ha        1 7PQ      0.139000
     50 H22        -4.5220    4.0180   -0.1830 ha        1 7PQ      0.133000
     51 H23        -6.9400    3.7630   -0.6970 ha        1 7PQ      0.133000
     52 H24        -7.9330    1.4840   -0.9630 ha        1 7PQ      0.134000
     53 H25        -4.1630   -3.9490   -0.6800 h1        1 7PQ      0.034700
     54 H26        -2.6680   -2.9280   -0.8390 h1        1 7PQ      0.034700
     55 H27        -2.6120   -4.1740    1.1650 hn        1 7PQ      0.352800
     56 H28        -2.9740   -2.6640    1.6680 hn        1 7PQ      0.352800
@<TRIPOS>BOND
     1    1    2 ar  
     2    1    6 ar  
     3    1   30 1   
     4    2    3 ar  
     5    2   31 1   
     6    3    4 ar  
     7    3    8 1   
     8    4    5 ar  
     9    4   32 1   
    10    5    6 ar  
    11    5   33 1   
    12    6    7 1   
    13    7   19 ar  
    14    7   23 ar  
    15    8    9 2   
    16    8   10 1   
    17   10   11 1   
    18   10   34 1   
    19   11   12 1   
    20   11   35 1   
    21   11   36 1   
    22   12   13 1   
    23   12   37 1   
    24   12   38 1   
    25   13   14 1   
    26   13   18 1   
    27   14   15 1   
    28   14   39 1   
    29   14   40 1   
    30   15   16 1   
    31   15   41 1   
    32   15   42 1   
    33   16   17 1   
    34   17   18 1   
    35   17   43 1   
    36   17   44 1   
    37   18   45 1   
    38   18   46 1   
    39   19   20 ar  
    40   19   24 ar  
    41   20   21 ar  
    42   20   27 ar  
    43   21   22 ar  
    44   21   47 1   
    45   22   23 ar  
    46   22   48 1   
    47   23   28 1   
    48   24   25 ar  
    49   24   49 1   
    50   25   26 ar  
    51   25   50 1   
    52   26   27 ar  
    53   26   51 1   
    54   27   52 1   
    55   28   29 1   
    56   28   53 1   
    57   28   54 1   
    58   29   55 1   
    59   29   56 1   
@<TRIPOS>SUBSTRUCTURE
     1 7PQ         1 TEMP              0 ****  ****    0 ROOT
