@<TRIPOS>MOLECULE
7PQ
   58    61     1     0     0
SMALL
bcc


@<TRIPOS>ATOM
      1 C1          0.4130    1.0850    0.3930 ca        1 7PQ     -0.121000
      2 C2          1.6650    1.6330    0.6640 ca        1 7PQ     -0.069000
      3 C3          2.0290    1.9250    1.9890 ca        1 7PQ     -0.189600
      4 C4          1.1230    1.6910    3.0320 ca        1 7PQ     -0.069000
      5 C5         -0.1330    1.1590    2.7520 ca        1 7PQ     -0.121000
      6 C6         -0.4960    0.8420    1.4330 cp        1 7PQ     -0.004000
      7 C7         -1.7970    0.2110    1.1610 cp        1 7PQ      0.000000
      8 C8          3.3490    2.5280    2.2130 c         1 7PQ      0.567700
      9 O9          3.8960    3.3990    1.5540 o         1 7PQ     -0.393100
     10 N10         4.1500    1.9960    3.3850 n4        1 7PQ     -0.675800
     11 C11         5.2090    1.0470    2.9180 c3        1 7PQ      0.088800
     12 C12         6.1300    0.5940    4.0840 c3        1 7PQ      0.171800
     13 N13         7.0850   -0.3660    3.5800 n3        1 7PQ     -0.748600
     14 C14         7.2380   -1.5400    4.4340 c3        1 7PQ      0.134300
     15 C15         8.2830   -2.5240    3.8860 c3        1 7PQ      0.125900
     16 O16         9.5160   -1.8720    3.6210 os        1 7PQ     -0.389600
     17 C17         9.3670   -0.8080    2.6910 c3        1 7PQ      0.125900
     18 C18         8.3600    0.2340    3.1990 c3        1 7PQ      0.134300
     19 C19        -1.8280   -1.2020    0.9390 ca        1 7PQ     -0.029000
     20 C20        -3.0780   -1.8480    0.7350 ca        1 7PQ     -0.018000
     21 C21        -4.2740   -1.0810    0.7670 ca        1 7PQ     -0.053000
     22 C22        -4.2250    0.2730    0.9720 ca        1 7PQ     -0.163000
     23 C23        -2.9800    0.9320    1.1550 ca        1 7PQ     -0.163300
     24 C24        -0.6450   -1.9920    0.9160 ca        1 7PQ     -0.138000
     25 C25        -0.7070   -3.3470    0.7000 ca        1 7PQ     -0.085000
     26 C26        -1.9550   -3.9860    0.4960 ca        1 7PQ     -0.087000
     27 C27        -3.1160   -3.2510    0.5140 ca        1 7PQ     -0.108000
     28 C28        -3.0220    2.4080    1.3730 c3        1 7PQ      0.170100
     29 N29        -3.5670    3.1200    0.1700 n4        1 7PQ     -0.841600
     30 H1          0.1480    0.8240   -0.6450 ha        1 7PQ      0.174000
     31 H2          2.3710    1.8330   -0.1610 ha        1 7PQ      0.162000
     32 H3          1.3710    1.9430    4.0760 ha        1 7PQ      0.162000
     33 H4         -0.8390    0.9640    3.5770 ha        1 7PQ      0.174000
     34 H5          4.6070    2.7840    3.8650 hn        1 7PQ      0.458800
     35 H6          4.7000    0.1550    2.4540 hx        1 7PQ      0.117200
     36 H7          5.8190    1.5750    2.1280 hx        1 7PQ      0.117200
     37 H8          6.6270    1.5090    4.5200 h1        1 7PQ      0.054200
     38 H9          5.4910    0.1280    4.8880 h1        1 7PQ      0.054200
     39 H11         7.5400   -1.2460    5.4810 h1        1 7PQ      0.047700
     40 H12         6.2450   -2.0660    4.4850 h1        1 7PQ      0.047700
     41 H13         8.5310   -3.2910    4.6680 h1        1 7PQ      0.071200
     42 H14         7.9060   -3.0250    2.9560 h1        1 7PQ      0.071200
     43 H15        10.3890   -0.3490    2.6200 h1        1 7PQ      0.071200
     44 H16         9.0510   -1.2120    1.6930 h1        1 7PQ      0.071200
     45 H17         8.8270    0.7860    4.0660 h1        1 7PQ      0.047700
     46 H18         8.1620    0.9740    2.3750 h1        1 7PQ      0.047700
     47 H19        -5.2410   -1.5970    0.6310 ha        1 7PQ      0.170000
     48 H20        -5.1600    0.8520    1.0310 ha        1 7PQ      0.136000
     49 H21         0.3280   -1.5010    1.0720 ha        1 7PQ      0.131000
     50 H22         0.2120   -3.9550    0.6810 ha        1 7PQ      0.158000
     51 H23        -1.9800   -5.0750    0.3250 ha        1 7PQ      0.169000
     52 H24        -4.0930   -3.7370    0.3580 ha        1 7PQ      0.163000
     53 H25        -3.7050    2.6510    2.2410 hx        1 7PQ      0.111700
     54 H26        -1.9970    2.8280    1.5850 hx        1 7PQ      0.111700
     55 H27        -3.6660    4.1210    0.3640 hn        1 7PQ      0.462800
     56 H28        -4.4860    2.7300   -0.0750 hn        1 7PQ      0.462800
     57 H102        3.5340    1.5190    4.0490 hn        1 7PQ      0.458800
     58 H293       -2.9420    2.9910   -0.6320 hn        1 7PQ      0.462800
@<TRIPOS>BOND
     1    1    2 ar  
     2    1    6 ar  
     3    1   30 1   
     4    2    3 ar  
     5    2   31 1   
     6    3    4 ar  
     7    3    8 1   
     8    4    5 ar  
     9    4   32 1   
    10    5    6 ar  
    11    5   33 1   
    12    6    7 1   
    13    7   19 ar  
    14    7   23 ar  
    15    8    9 2   
    16    8   10 1   
    17   10   11 1   
    18   10   34 1   
    19   10   57 1   
    20   11   12 1   
    21   11   35 1   
    22   11   36 1   
    23   12   13 1   
    24   12   37 1   
    25   12   38 1   
    26   13   14 1   
    27   13   18 1   
    28   14   15 1   
    29   14   39 1   
    30   14   40 1   
    31   15   16 1   
    32   15   41 1   
    33   15   42 1   
    34   16   17 1   
    35   17   18 1   
    36   17   43 1   
    37   17   44 1   
    38   18   45 1   
    39   18   46 1   
    40   19   20 ar  
    41   19   24 ar  
    42   20   21 ar  
    43   20   27 ar  
    44   21   22 ar  
    45   21   47 1   
    46   22   23 ar  
    47   22   48 1   
    48   23   28 1   
    49   24   25 ar  
    50   24   49 1   
    51   25   26 ar  
    52   25   50 1   
    53   26   27 ar  
    54   26   51 1   
    55   27   52 1   
    56   28   29 1   
    57   28   53 1   
    58   28   54 1   
    59   29   55 1   
    60   29   56 1   
    61   29   58 1   
@<TRIPOS>SUBSTRUCTURE
     1 7PQ         1 TEMP              0 ****  ****    0 ROOT
