@<TRIPOS>MOLECULE
7PQ
   58    61     1     0     0
SMALL
bcc


@<TRIPOS>ATOM
      1 C1          0.4300    1.0490    0.3570 ca        1 7PQ     -0.121000
      2 C2          1.6850    1.5990    0.6150 ca        1 7PQ     -0.069000
      3 C3          2.0450    1.9320    1.9300 ca        1 7PQ     -0.189600
      4 C4          1.1350    1.7350    2.9780 ca        1 7PQ     -0.069000
      5 C5         -0.1220    1.2000    2.7110 ca        1 7PQ     -0.121000
      6 C6         -0.4820    0.8430    1.4010 cp        1 7PQ     -0.004000
      7 C7         -1.7850    0.2080    1.1460 cp        1 7PQ      0.000000
      8 C8          3.3680    2.5360    2.1390 c         1 7PQ      0.567700
      9 O9          3.9200    3.3840    1.4550 o         1 7PQ     -0.393100
     10 N10         4.1630    2.0390    3.3290 n4        1 7PQ     -0.675800
     11 C11         5.2080    1.0580    2.8980 c3        1 7PQ      0.088800
     12 C12         6.1240    0.6360    4.0790 c3        1 7PQ      0.171800
     13 N13         7.0640   -0.3570    3.6110 n3        1 7PQ     -0.748600
     14 C14         7.2020   -1.4990    4.5100 c3        1 7PQ      0.134300
     15 C15         8.2300   -2.5190    3.9990 c3        1 7PQ      0.125900
     16 O16         9.4730   -1.8950    3.7070 os        1 7PQ     -0.389600
     17 C17         9.3380   -0.8660    2.7370 c3        1 7PQ      0.125900
     18 C18         8.3470    0.2090    3.2060 c3        1 7PQ      0.134300
     19 C19        -1.8210   -1.2110    0.9670 ca        1 7PQ     -0.029000
     20 C20        -3.0730   -1.8570    0.7790 ca        1 7PQ     -0.018000
     21 C21        -4.2670   -1.0860    0.7840 ca        1 7PQ     -0.053000
     22 C22        -4.2120    0.2740    0.9480 ca        1 7PQ     -0.163000
     23 C23        -2.9650    0.9340    1.1140 ca        1 7PQ     -0.163300
     24 C24        -0.6410   -2.0060    0.9720 ca        1 7PQ     -0.138000
     25 C25        -0.7090   -3.3670    0.7970 ca        1 7PQ     -0.085000
     26 C26        -1.9580   -4.0060    0.6090 ca        1 7PQ     -0.087000
     27 C27        -3.1160   -3.2670    0.6010 ca        1 7PQ     -0.108000
     28 C28        -3.0020    2.4150    1.2870 c3        1 7PQ      0.169100
     29 N29        -3.5410    3.0920    0.0600 n4        1 7PQ     -0.841600
     30 H1          0.1680    0.7550   -0.6730 ha        1 7PQ      0.174000
     31 H2          2.3930    1.7710   -0.2140 ha        1 7PQ      0.162000
     32 H3          1.3810    2.0190    4.0140 ha        1 7PQ      0.162000
     33 H4         -0.8310    1.0330    3.5400 ha        1 7PQ      0.174000
     34 H5          3.5420    1.5950    4.0120 hn        1 7PQ      0.458800
     35 H6          5.8240    1.5470    2.0890 hx        1 7PQ      0.117200
     36 H7          4.6860    0.1570    2.4690 hx        1 7PQ      0.117200
     37 H8          6.6360    1.5600    4.4800 h1        1 7PQ      0.054200
     38 H9          5.4800    0.2110    4.9010 h1        1 7PQ      0.054200
     39 H11         7.5100   -1.1690    5.5440 h1        1 7PQ      0.047700
     40 H12         6.2010   -2.0080    4.5830 h1        1 7PQ      0.047700
     41 H13         7.8440   -3.0490    3.0890 h1        1 7PQ      0.071200
     42 H14         8.4690   -3.2580    4.8090 h1        1 7PQ      0.071200
     43 H15         9.0140   -1.3030    1.7560 h1        1 7PQ      0.071200
     44 H16        10.3660   -0.4260    2.6470 h1        1 7PQ      0.071200
     45 H17         8.1580    0.9200    2.3550 h1        1 7PQ      0.047700
     46 H18         8.8240    0.7880    4.0500 h1        1 7PQ      0.047700
     47 H19        -5.2350   -1.6020    0.6620 ha        1 7PQ      0.170000
     48 H20        -5.1450    0.8580    0.9870 ha        1 7PQ      0.136000
     49 H21         0.3330   -1.5140    1.1150 ha        1 7PQ      0.131000
     50 H22         0.2080   -3.9780    0.7990 ha        1 7PQ      0.158000
     51 H23        -1.9880   -5.1000    0.4720 ha        1 7PQ      0.169000
     52 H24        -4.0950   -3.7540    0.4580 ha        1 7PQ      0.163000
     53 H25        -1.9760    2.8370    1.4880 hx        1 7PQ      0.111700
     54 H26        -3.6870    2.6880    2.1450 hx        1 7PQ      0.111700
     55 H27        -2.9140    2.9360   -0.7350 hn        1 7PQ      0.462800
     56 H28        -4.4610    2.6990   -0.1750 hn        1 7PQ      0.462800
     57 H102        4.6310    2.8370    3.7790 hn        1 7PQ      0.458800
     58 H293       -3.6360    4.0990    0.2230 hn        1 7PQ      0.462800
@<TRIPOS>BOND
     1    1    2 ar  
     2    1    6 ar  
     3    1   30 1   
     4    2    3 ar  
     5    2   31 1   
     6    3    4 ar  
     7    3    8 1   
     8    4    5 ar  
     9    4   32 1   
    10    5    6 ar  
    11    5   33 1   
    12    6    7 1   
    13    7   19 ar  
    14    7   23 ar  
    15    8    9 2   
    16    8   10 1   
    17   10   11 1   
    18   10   34 1   
    19   10   57 1   
    20   11   12 1   
    21   11   35 1   
    22   11   36 1   
    23   12   13 1   
    24   12   37 1   
    25   12   38 1   
    26   13   14 1   
    27   13   18 1   
    28   14   15 1   
    29   14   39 1   
    30   14   40 1   
    31   15   16 1   
    32   15   41 1   
    33   15   42 1   
    34   16   17 1   
    35   17   18 1   
    36   17   43 1   
    37   17   44 1   
    38   18   45 1   
    39   18   46 1   
    40   19   20 ar  
    41   19   24 ar  
    42   20   21 ar  
    43   20   27 ar  
    44   21   22 ar  
    45   21   47 1   
    46   22   23 ar  
    47   22   48 1   
    48   23   28 1   
    49   24   25 ar  
    50   24   49 1   
    51   25   26 ar  
    52   25   50 1   
    53   26   27 ar  
    54   26   51 1   
    55   27   52 1   
    56   28   29 1   
    57   28   53 1   
    58   28   54 1   
    59   29   55 1   
    60   29   56 1   
    61   29   58 1   
@<TRIPOS>SUBSTRUCTURE
     1 7PQ         1 TEMP              0 ****  ****    0 ROOT
