@<TRIPOS>MOLECULE
7PQ
   58    61     1     0     0
SMALL
bcc


@<TRIPOS>ATOM
      1 C1          0.4110    1.1020    0.4060 ca        1 7PQ     -0.121000
      2 C2          1.6620    1.6510    0.6820 ca        1 7PQ     -0.069000
      3 C3          2.0250    1.9290    2.0090 ca        1 7PQ     -0.189600
      4 C4          1.1210    1.6810    3.0510 ca        1 7PQ     -0.069000
      5 C5         -0.1330    1.1480    2.7660 ca        1 7PQ     -0.121000
      6 C6         -0.4960    0.8450    1.4430 cp        1 7PQ     -0.004000
      7 C7         -1.7950    0.2120    1.1660 cp        1 7PQ      0.000000
      8 C8          3.3440    2.5340    2.2390 c         1 7PQ      0.567700
      9 O9          3.8880    3.4140    1.5900 o         1 7PQ     -0.393100
     10 N10         4.1480    1.9920    3.4040 ny        1 7PQ     -0.675800
     11 C11         5.2050    1.0480    2.9260 c3        1 7PQ      0.088800
     12 C12         6.1300    0.5840    4.0850 c3        1 7PQ      0.171800
     13 N13         7.0830   -0.3720    3.5700 n3        1 7PQ     -0.748600
     14 C14         7.2390   -1.5530    4.4140 c3        1 7PQ      0.134300
     15 C15         8.2810   -2.5330    3.8550 c3        1 7PQ      0.125900
     16 O16         9.5140   -1.8780    3.5920 os        1 7PQ     -0.389600
     17 C17         9.3630   -0.8070    2.6710 c3        1 7PQ      0.125900
     18 C18         8.3570    0.2310    3.1910 c3        1 7PQ      0.134300
     19 C19        -1.8220   -1.1980    0.9260 ca        1 7PQ     -0.029000
     20 C20        -3.0700   -1.8450    0.7160 ca        1 7PQ     -0.018000
     21 C21        -4.2690   -1.0840    0.7590 ca        1 7PQ     -0.053000
     22 C22        -4.2240    0.2690    0.9800 ca        1 7PQ     -0.163000
     23 C23        -2.9810    0.9300    1.1700 ca        1 7PQ     -0.163300
     24 C24        -0.6360   -1.9830    0.8920 ca        1 7PQ     -0.138000
     25 C25        -0.6950   -3.3360    0.6590 ca        1 7PQ     -0.085000
     26 C26        -1.9400   -3.9770    0.4490 ca        1 7PQ     -0.087000
     27 C27        -3.1030   -3.2460    0.4770 ca        1 7PQ     -0.108000
     28 C28        -3.0280    2.4020    1.4070 c3        1 7PQ      0.169100
     29 N29        -3.5760    3.1270    0.2130 nz        1 7PQ     -0.841600
     30 H1          0.1460    0.8510   -0.6350 ha        1 7PQ      0.174000
     31 H2          2.3660    1.8630   -0.1420 ha        1 7PQ      0.162000
     32 H3          1.3700    1.9220    4.0970 ha        1 7PQ      0.162000
     33 H4         -0.8370    0.9410    3.5900 ha        1 7PQ      0.174000
     34 H5          4.6060    2.7760    3.8900 hn        1 7PQ      0.458800
     35 H6          5.8130    1.5820    2.1400 hx        1 7PQ      0.117200
     36 H7          4.6950    0.1600    2.4560 hx        1 7PQ      0.117200
     37 H8          6.6290    1.4960    4.5280 h1        1 7PQ      0.054200
     38 H9          5.4940    0.1120    4.8870 h1        1 7PQ      0.054200
     39 H11         7.5430   -1.2680    5.4630 h1        1 7PQ      0.047700
     40 H12         6.2450   -2.0790    4.4640 h1        1 7PQ      0.047700
     41 H13         7.9010   -3.0250    2.9220 h1        1 7PQ      0.071200
     42 H14         8.5310   -3.3050    4.6300 h1        1 7PQ      0.071200
     43 H15         9.0440   -1.2020    1.6710 h1        1 7PQ      0.071200
     44 H16        10.3840   -0.3480    2.6010 h1        1 7PQ      0.071200
     45 H17         8.8270    0.7760    4.0610 h1        1 7PQ      0.047700
     46 H18         8.1570    0.9780    2.3740 h1        1 7PQ      0.047700
     47 H19        -5.2340   -1.6010    0.6180 ha        1 7PQ      0.170000
     48 H20        -5.1610    0.8430    1.0480 ha        1 7PQ      0.136000
     49 H21         0.3350   -1.4910    1.0530 ha        1 7PQ      0.131000
     50 H22         0.2270   -3.9400    0.6310 ha        1 7PQ      0.158000
     51 H23        -1.9620   -5.0640    0.2640 ha        1 7PQ      0.169000
     52 H24        -4.0800   -3.7330    0.3160 ha        1 7PQ      0.163000
     53 H25        -3.7110    2.6320    2.2790 hx        1 7PQ      0.111700
     54 H26        -2.0040    2.8230    1.6230 hx        1 7PQ      0.111700
     55 H27        -4.4940    2.7380   -0.0360 hn        1 7PQ      0.462800
     56 H28        -2.9520    3.0110   -0.5910 hn        1 7PQ      0.462800
     57 H102        3.5340    1.5090    4.0660 hn        1 7PQ      0.458800
     58 H293       -3.6790    4.1250    0.4200 hn        1 7PQ      0.462800
@<TRIPOS>BOND
     1    1    2 ar  
     2    1    6 ar  
     3    1   30 1   
     4    2    3 ar  
     5    2   31 1   
     6    3    4 ar  
     7    3    8 1   
     8    4    5 ar  
     9    4   32 1   
    10    5    6 ar  
    11    5   33 1   
    12    6    7 1   
    13    7   19 ar  
    14    7   23 ar  
    15    8    9 2   
    16    8   10 1   
    17   10   11 1   
    18   10   34 1   
    19   10   57 1   
    20   11   12 1   
    21   11   35 1   
    22   11   36 1   
    23   12   13 1   
    24   12   37 1   
    25   12   38 1   
    26   13   14 1   
    27   13   18 1   
    28   14   15 1   
    29   14   39 1   
    30   14   40 1   
    31   15   16 1   
    32   15   41 1   
    33   15   42 1   
    34   16   17 1   
    35   17   18 1   
    36   17   43 1   
    37   17   44 1   
    38   18   45 1   
    39   18   46 1   
    40   19   20 ar  
    41   19   24 ar  
    42   20   21 ar  
    43   20   27 ar  
    44   21   22 ar  
    45   21   47 1   
    46   22   23 ar  
    47   22   48 1   
    48   23   28 1   
    49   24   25 ar  
    50   24   49 1   
    51   25   26 ar  
    52   25   50 1   
    53   26   27 ar  
    54   26   51 1   
    55   27   52 1   
    56   28   29 1   
    57   28   53 1   
    58   28   54 1   
    59   29   55 1   
    60   29   56 1   
    61   29   58 1   
@<TRIPOS>SUBSTRUCTURE
     1 7PQ         1 TEMP              0 ****  ****    0 ROOT
