@<TRIPOS>MOLECULE
7PY
   47    50     1     0     0
SMALL
bcc


@<TRIPOS>ATOM
      1 CAX        -0.3400   -0.1580    0.1840 c3        1 7PY      0.110700
      2 OAW         1.0730   -0.3090    0.2680 os        1 7PY     -0.312900
      3 CAS         1.6320   -0.1360    1.5170 ca        1 7PY      0.148600
      4 CAR         0.8920   -0.0070    2.6940 ca        1 7PY     -0.235500
      5 CAT         3.0430   -0.1130    1.5430 ca        1 7PY      0.030100
      6 OAY         3.7440   -0.1020    0.3530 os        1 7PY     -0.308900
      7 CAZ         4.4300   -1.3250    0.0810 c3        1 7PY      0.115700
      8 CAU         3.6920    0.0140    2.7880 ca        1 7PY      0.148600
      9 OBA         5.0710   -0.0180    2.7350 os        1 7PY     -0.312900
     10 CBB         5.7560    0.2040    3.9640 c3        1 7PY      0.110700
     11 CAV         2.9620    0.1510    3.9740 ca        1 7PY     -0.235500
     12 CAF         1.5560    0.1390    3.9320 ca        1 7PY      0.189600
     13 NAE         0.7900    0.3630    5.1010 nh        1 7PY     -0.703300
     14 CAD         0.8410   -0.5180    6.2070 ca        1 7PY      0.873900
     15 NAG        -0.2640   -0.4770    7.0430 nb        1 7PY     -0.727000
     16 CAH        -0.1460   -1.2460    8.1540 ca        1 7PY      0.514800
     17 NAC         1.9880   -1.2950    6.3970 nb        1 7PY     -0.741000
     18 CAB         2.0440   -2.0530    7.4950 ca        1 7PY      0.502200
     19 CAA         1.0120   -2.0870    8.4420 ca        1 7PY     -0.363400
     20 CAL         0.7440   -2.7660    9.6840 cc        1 7PY     -0.133200
     21 CAK        -0.5090   -2.3600   10.1130 cd        1 7PY     -0.112100
     22 NAI        -1.0850   -1.4600    9.1850 na        1 7PY     -0.219900
     23 CAJ        -2.2720   -0.7280    9.4220 ca        1 7PY      0.509800
     24 CAM        -3.3630   -1.3770   10.0660 ca        1 7PY     -0.258300
     25 CAN        -4.5340   -0.6530   10.2850 ca        1 7PY     -0.078000
     26 CAO        -4.6090    0.6750    9.8680 ca        1 7PY     -0.259300
     27 CAP        -3.4810    1.2360    9.2400 ca        1 7PY      0.417200
     28 NAQ        -2.3330    0.5800    9.0180 nb        1 7PY     -0.652000
     29 HAX1       -0.6580    0.8430    0.5620 h1        1 7PY      0.046367
     30 HAX2       -0.5430   -0.2480   -0.9140 h1        1 7PY      0.046367
     31 HAX3       -0.8560   -0.9740    0.7470 h1        1 7PY      0.046367
     32 HAR        -0.2070   -0.0230    2.6550 ha        1 7PY      0.152500
     33 HAZ1        3.7010   -2.1650   -0.0180 h1        1 7PY      0.040367
     34 HAZ2        5.1720   -1.5410    0.8880 h1        1 7PY      0.040367
     35 HAZ3        4.9440   -1.1270   -0.8920 h1        1 7PY      0.040367
     36 HBB1        5.4920    1.2010    4.3910 h1        1 7PY      0.046367
     37 HBB2        5.5270   -0.6100    4.6940 h1        1 7PY      0.046367
     38 HBB3        6.8340    0.1750    3.6640 h1        1 7PY      0.046367
     39 HAV         3.4850    0.2700    4.9340 ha        1 7PY      0.152500
     40 HAE        -0.1240    0.7330    4.9180 hn        1 7PY      0.438800
     41 HAB         2.9580   -2.6640    7.6140 h4        1 7PY      0.029100
     42 HAL         1.4080   -3.4660   10.1830 ha        1 7PY      0.163000
     43 HAK        -1.0640   -2.6360   11.0120 h4        1 7PY      0.174000
     44 HAM        -3.2920   -2.4280   10.3750 ha        1 7PY      0.150000
     45 HAN        -5.3910   -1.1340   10.7790 ha        1 7PY      0.143000
     46 HAO        -5.5160    1.2720   10.0190 ha        1 7PY      0.149000
     47 HAP        -3.4890    2.2870    8.8930 h4        1 7PY      0.030100
@<TRIPOS>BOND
     1    1    2 1   
     2    1   29 1   
     3    1   30 1   
     4    1   31 1   
     5    2    3 1   
     6    3    4 ar  
     7    3    5 ar  
     8    4   12 ar  
     9    4   32 1   
    10    5    6 1   
    11    5    8 ar  
    12    6    7 1   
    13    7   33 1   
    14    7   34 1   
    15    7   35 1   
    16    8    9 1   
    17    8   11 ar  
    18    9   10 1   
    19   10   36 1   
    20   10   37 1   
    21   10   38 1   
    22   11   12 ar  
    23   11   39 1   
    24   12   13 1   
    25   13   14 1   
    26   13   40 1   
    27   14   15 ar  
    28   14   17 ar  
    29   15   16 ar  
    30   16   19 ar  
    31   16   22 1   
    32   17   18 ar  
    33   18   19 ar  
    34   18   41 1   
    35   19   20 1   
    36   20   21 2   
    37   20   42 1   
    38   21   22 1   
    39   21   43 1   
    40   22   23 1   
    41   23   24 ar  
    42   23   28 ar  
    43   24   25 ar  
    44   24   44 1   
    45   25   26 ar  
    46   25   45 1   
    47   26   27 ar  
    48   26   46 1   
    49   27   28 ar  
    50   27   47 1   
@<TRIPOS>SUBSTRUCTURE
     1 7PY         1 TEMP              0 ****  ****    0 ROOT
