@<TRIPOS>MOLECULE
7PY
   48    51     1     0     0
SMALL
bcc


@<TRIPOS>ATOM
      1 CAX        -1.2000    0.3620    1.9110 c3        1 7PY      0.105200
      2 OAW         0.1060   -0.0190    1.4840 os        1 7PY     -0.300400
      3 CAS         1.1160    0.0950    2.4070 ca        1 7PY      0.113100
      4 CAR         0.9530    0.5940    3.6980 ca        1 7PY     -0.173500
      5 CAT         2.3910   -0.3450    1.9400 ca        1 7PY      0.150100
      6 OAY         2.3750   -0.8280    0.6650 os        1 7PY     -0.282900
      7 CAZ         3.6180   -1.1350    0.0300 c3        1 7PY      0.116700
      8 CAU         3.4940   -0.2660    2.8200 ca        1 7PY      0.113100
      9 OBA         4.7030   -0.7060    2.3240 os        1 7PY     -0.300400
     10 CBB         5.8220   -0.6600    3.2080 c3        1 7PY      0.105200
     11 CAV         3.3410    0.2380    4.1170 ca        1 7PY     -0.173500
     12 CAF         2.0770    0.6700    4.5370 ca        1 7PY     -0.033400
     13 NAE         1.9200    1.2230    5.8870 n4        1 7PY     -0.596100
     14 CAD         1.6890    0.1420    6.9010 ca        1 7PY      0.695900
     15 NAG         0.3820   -0.1040    7.2040 nb        1 7PY     -0.629000
     16 CAH         0.2290   -1.0890    8.1350 ca        1 7PY      0.466800
     17 NAC         2.8310   -0.4700    7.3870 nb        1 7PY     -0.697000
     18 CAB         2.6440   -1.4450    8.2870 ca        1 7PY      0.499200
     19 CAA         1.3620   -1.8210    8.7190 ca        1 7PY     -0.273400
     20 CAL         0.8080   -2.7760    9.6330 cc        1 7PY     -0.149200
     21 CAK        -0.5770   -2.6230    9.6010 cd        1 7PY     -0.053100
     22 NAI        -0.9460   -1.6220    8.6840 na        1 7PY     -0.182900
     23 CAJ        -2.2690   -1.1300    8.5050 ca        1 7PY      0.471800
     24 CAM        -3.3580   -2.0380    8.5770 ca        1 7PY     -0.234300
     25 CAN        -4.6500   -1.5340    8.4140 ca        1 7PY     -0.071000
     26 CAO        -4.8310   -0.1730    8.1820 ca        1 7PY     -0.228300
     27 CAP        -3.6900    0.6500    8.1200 ca        1 7PY      0.417200
     28 NAQ        -2.4330    0.2090    8.2750 nb        1 7PY     -0.664000
     29 HAX1       -1.5340   -0.2670    2.7720 h1        1 7PY      0.057033
     30 HAX2       -1.8270    0.1590    1.0050 h1        1 7PY      0.057033
     31 HAX3       -1.2270    1.4470    2.1750 h1        1 7PY      0.057033
     32 HAR        -0.0420    0.9140    4.0460 ha        1 7PY      0.165500
     33 HAZ1        4.1000   -2.0090    0.5300 h1        1 7PY      0.063367
     34 HAZ2        4.2950   -0.2480    0.0370 h1        1 7PY      0.063367
     35 HAZ3        3.3000   -1.3920   -1.0140 h1        1 7PY      0.063367
     36 HBB1        6.0440    0.3930    3.5060 h1        1 7PY      0.057033
     37 HBB2        5.6440   -1.3030    4.1030 h1        1 7PY      0.057033
     38 HBB3        6.6520   -1.0760    2.5800 h1        1 7PY      0.057033
     39 HAV         4.2060    0.2770    4.7990 ha        1 7PY      0.165500
     40 HAE         1.1180    1.8690    5.8970 hn        1 7PY      0.473300
     41 HAB         3.5610   -1.9350    8.6710 h4        1 7PY      0.063100
     42 HAL         1.3670   -3.4850   10.2420 ha        1 7PY      0.189000
     43 HAK        -1.3470   -3.1580   10.1670 h4        1 7PY      0.200000
     44 HAM        -3.1980   -3.1120    8.7490 ha        1 7PY      0.158000
     45 HAN        -5.5140   -2.2160    8.4670 ha        1 7PY      0.162000
     46 HAO        -5.8340    0.2570    8.0520 ha        1 7PY      0.166000
     47 HAP        -3.7850    1.7390    7.9410 h4        1 7PY      0.039100
     48 HAE2        2.7750    1.7340    6.1450 hn        1 7PY      0.473300
@<TRIPOS>BOND
     1    1    2 1   
     2    1   29 1   
     3    1   30 1   
     4    1   31 1   
     5    2    3 1   
     6    3    4 ar  
     7    3    5 ar  
     8    4   12 ar  
     9    4   32 1   
    10    5    6 1   
    11    5    8 ar  
    12    6    7 1   
    13    7   33 1   
    14    7   34 1   
    15    7   35 1   
    16    8    9 1   
    17    8   11 ar  
    18    9   10 1   
    19   10   36 1   
    20   10   37 1   
    21   10   38 1   
    22   11   12 ar  
    23   11   39 1   
    24   12   13 1   
    25   13   14 1   
    26   13   40 1   
    27   13   48 1   
    28   14   15 ar  
    29   14   17 ar  
    30   15   16 ar  
    31   16   19 ar  
    32   16   22 1   
    33   17   18 ar  
    34   18   19 ar  
    35   18   41 1   
    36   19   20 1   
    37   20   21 2   
    38   20   42 1   
    39   21   22 1   
    40   21   43 1   
    41   22   23 1   
    42   23   24 ar  
    43   23   28 ar  
    44   24   25 ar  
    45   24   44 1   
    46   25   26 ar  
    47   25   45 1   
    48   26   27 ar  
    49   26   46 1   
    50   27   28 ar  
    51   27   47 1   
@<TRIPOS>SUBSTRUCTURE
     1 7PY         1 TEMP              0 ****  ****    0 ROOT
