@<TRIPOS>MOLECULE
7PY
   47    50     1     0     0
SMALL
bcc


@<TRIPOS>ATOM
      1 CAX        -3.9160    3.6430    1.1160 c3        1 7PY      0.110700
      2 OAW        -4.5960    2.4180    0.8680 os        1 7PY     -0.312900
      3 CAS        -3.8530    1.4130    0.2840 ca        1 7PY      0.148600
      4 CAR        -2.4700    1.4710    0.0990 ca        1 7PY     -0.235500
      5 CAT        -4.5890    0.2770   -0.1150 ca        1 7PY      0.030100
      6 OAY        -5.9690    0.3050   -0.0480 os        1 7PY     -0.308900
      7 CAZ        -6.5090   -0.5260    0.9820 c3        1 7PY      0.115700
      8 CAU        -3.8950   -0.8130   -0.6770 ca        1 7PY      0.148600
      9 OBA        -4.6780   -1.9030   -0.9980 os        1 7PY     -0.312900
     10 CBB        -4.0220   -2.9820   -1.6550 c3        1 7PY      0.110700
     11 CAV        -2.5100   -0.7650   -0.8750 ca        1 7PY     -0.235500
     12 CAF        -1.7910    0.3780   -0.4850 ca        1 7PY      0.189600
     13 NAE        -0.4050    0.4930   -0.7510 nh        1 7PY     -0.703300
     14 CAD         0.5400   -0.3910   -0.1800 ca        1 7PY      0.873900
     15 NAG         1.8360    0.0960   -0.1140 nb        1 7PY     -0.727000
     16 CAH         2.7440   -0.8060    0.3340 ca        1 7PY      0.514800
     17 NAC         0.1200   -1.6670    0.2090 nb        1 7PY     -0.741000
     18 CAB         1.0500   -2.5100    0.6650 ca        1 7PY      0.502200
     19 CAA         2.4040   -2.1610    0.7580 ca        1 7PY     -0.363400
     20 CAL         3.6260   -2.7880    1.1930 cc        1 7PY     -0.133200
     21 CAK         4.6420   -1.8590    1.0440 cd        1 7PY     -0.112100
     22 NAI         4.1280   -0.6340    0.5530 na        1 7PY     -0.219900
     23 CAJ         4.9300    0.4470    0.1210 ca        1 7PY      0.509800
     24 CAM         6.0900    0.7850    0.8750 ca        1 7PY     -0.258300
     25 CAN         6.8700    1.8600    0.4510 ca        1 7PY     -0.078000
     26 CAO         6.4960    2.5740   -0.6860 ca        1 7PY     -0.259300
     27 CAP         5.3350    2.1690   -1.3690 ca        1 7PY      0.417200
     28 NAQ         4.5610    1.1370   -1.0030 nb        1 7PY     -0.652000
     29 HAX1       -3.4720    4.0520    0.1760 h1        1 7PY      0.046367
     30 HAX2       -4.7270    4.3150    1.4960 h1        1 7PY      0.046367
     31 HAX3       -3.1260    3.5020    1.8940 h1        1 7PY      0.046367
     32 HAR        -1.9120    2.3660    0.4100 ha        1 7PY      0.152500
     33 HAZ1       -6.2170   -1.5910    0.8140 h1        1 7PY      0.040367
     34 HAZ2       -6.1620   -0.1770    1.9840 h1        1 7PY      0.040367
     35 HAZ3       -7.6140   -0.3920    0.8750 h1        1 7PY      0.040367
     36 HBB1       -3.5670   -2.6430   -2.6170 h1        1 7PY      0.046367
     37 HBB2       -3.2460   -3.4340   -0.9910 h1        1 7PY      0.046367
     38 HBB3       -4.8520   -3.7090   -1.8450 h1        1 7PY      0.046367
     39 HAV        -1.9890   -1.6170   -1.3350 ha        1 7PY      0.152500
     40 HAE        -0.0860    1.4410   -0.8190 hn        1 7PY      0.438800
     41 HAB         0.6880   -3.5080    0.9740 h4        1 7PY      0.029100
     42 HAL         3.7220   -3.8040    1.5680 ha        1 7PY      0.163000
     43 HAK         5.7100   -1.9500    1.2500 h4        1 7PY      0.174000
     44 HAM         6.3620    0.2210    1.7770 ha        1 7PY      0.150000
     45 HAN         7.7700    2.1410    1.0180 ha        1 7PY      0.143000
     46 HAO         7.0840    3.4280   -1.0440 ha        1 7PY      0.149000
     47 HAP         4.9970    2.7010   -2.2790 h4        1 7PY      0.030100
@<TRIPOS>BOND
     1    1    2 1   
     2    1   29 1   
     3    1   30 1   
     4    1   31 1   
     5    2    3 1   
     6    3    4 ar  
     7    3    5 ar  
     8    4   12 ar  
     9    4   32 1   
    10    5    6 1   
    11    5    8 ar  
    12    6    7 1   
    13    7   33 1   
    14    7   34 1   
    15    7   35 1   
    16    8    9 1   
    17    8   11 ar  
    18    9   10 1   
    19   10   36 1   
    20   10   37 1   
    21   10   38 1   
    22   11   12 ar  
    23   11   39 1   
    24   12   13 1   
    25   13   14 1   
    26   13   40 1   
    27   14   15 ar  
    28   14   17 ar  
    29   15   16 ar  
    30   16   19 ar  
    31   16   22 1   
    32   17   18 ar  
    33   18   19 ar  
    34   18   41 1   
    35   19   20 1   
    36   20   21 2   
    37   20   42 1   
    38   21   22 1   
    39   21   43 1   
    40   22   23 1   
    41   23   24 ar  
    42   23   28 ar  
    43   24   25 ar  
    44   24   44 1   
    45   25   26 ar  
    46   25   45 1   
    47   26   27 ar  
    48   26   46 1   
    49   27   28 ar  
    50   27   47 1   
@<TRIPOS>SUBSTRUCTURE
     1 7PY         1 TEMP              0 ****  ****    0 ROOT
