@<TRIPOS>MOLECULE
7PY
   47    39     1     0     0
SMALL
bcc


@<TRIPOS>ATOM
      1 CAX         4.1550    1.6650   -2.2030 c3        1 7PY     -0.075000
      2 OAW         3.1010    2.1230   -3.0170 os        1 7PY     -0.212000
      3 CAS         1.9330    1.3140   -2.9540 c2        1 7PY      0.081000
      4 CAR         1.0730    1.4410   -1.8980 c2        1 7PY     -0.194000
      5 CAT         1.6330    0.4250   -4.0090 c1        1 7PY     -0.003000
      6 OAY         2.4140    0.4520   -5.1900 o         1 7PY     -0.205000
      7 CAZ         3.4230   -0.5950   -5.2480 c3        1 7PY     -0.073000
      8 CAU         0.4590   -0.3270   -3.9760 c2        1 7PY      0.062000
      9 OBA         0.1350   -1.1810   -5.0610 os        1 7PY     -0.214000
     10 CBB         0.3920   -2.5130   -4.8090 c3        1 7PY     -0.077000
     11 CAV        -0.4090   -0.2040   -2.9150 c1        1 7PY     -0.174000
     12 CAF        -0.1130    0.6820   -1.8640 c1        1 7PY      0.075000
     13 NAE        -0.9960    0.7600   -0.7160 n3        1 7PY     -0.219000
     14 CAD        -0.7790   -0.1190    0.4260 c2        1 7PY      0.152000
     15 NAG        -1.2800    0.2390    1.6660 n2        1 7PY     -0.198000
     16 CAH        -1.1330   -0.5830    2.7090 c1        1 7PY      0.122000
     17 NAC        -0.1430   -1.2970    0.2660 n1        1 7PY     -0.217000
     18 CAB         0.0070   -2.1310    1.3170 c1        1 7PY      0.036000
     19 CAA        -0.4890   -1.7770    2.5510 c1        1 7PY     -0.221000
     20 CAL        -0.4810   -2.4270    3.7850 c1        1 7PY     -0.146000
     21 CAK        -1.1230   -1.6220    4.6900 c1        1 7PY     -0.084000
     22 NAI        -1.5290   -0.4820    4.0360 n2        1 7PY     -0.119000
     23 CAJ        -2.2570    0.5770    4.5890 c1        1 7PY      0.118000
     24 CAM        -3.6070    0.4250    4.8590 c1        1 7PY     -0.127500
     25 CAN        -4.3160    1.4610    5.3780 c1        1 7PY     -0.127500
     26 CAO        -3.6890    2.6660    5.6360 c1        1 7PY     -0.127500
     27 CAP        -2.3390    2.8100    5.3630 c1        1 7PY     -0.127500
     28 NAQ        -1.6370    1.7730    4.8450 n1        1 7PY     -0.127000
     29 HAX1        4.9570    2.2320   -2.3480 h1        1 7PY      0.083667
     30 HAX2        4.3750    0.6900   -2.4470 h1        1 7PY      0.083667
     31 HAX3        3.8870    1.7130   -1.2680 h1        1 7PY      0.083667
     32 HAR         1.2820    2.0580   -1.1690 ha        1 7PY      0.152000
     33 HAZ1        3.2160   -1.2180   -6.0110 h1        1 7PY      0.083667
     34 HAZ2        3.4220   -1.1100   -4.3790 h1        1 7PY      0.083667
     35 HAZ3        4.2740   -0.2070   -5.3810 h1        1 7PY      0.083667
     36 HBB1        1.3260   -2.6440   -4.7320 h1        1 7PY      0.086667
     37 HBB2       -0.0470   -2.7760   -3.9660 h1        1 7PY      0.086667
     38 HBB3        0.0340   -3.0790   -5.5660 h1        1 7PY      0.086667
     39 HAV        -1.2380   -0.7360   -2.8930 ha        1 7PY      0.163000
     40 HAE        -1.6690    1.4630   -0.6670 hn        1 7PY      0.234000
     41 HAB         0.4580   -2.9620    1.2050 ha        1 7PY      0.165000
     42 HAL        -0.1140   -3.2480    3.9610 DU        1 7PY      0.168000
     43 HAK        -1.1940   -1.7780    5.5970 DU        1 7PY      0.168000
     44 HAM        -4.0220   -0.3780    4.6880 ha        1 7PY      0.152250
     45 HAN        -5.2850    1.3530    5.5710 ha        1 7PY      0.152250
     46 HAO        -4.1840    3.3960    6.0000 ha        1 7PY      0.152250
     47 HAP        -1.8830    3.6740    5.5480 ha        1 7PY      0.152250
@<TRIPOS>BOND
     1    1    2 1   
     2    1   29 1   
     3    1   30 1   
     4    1   31 1   
     5    2    3 1   
     6    3    4 1   
     7    3    5 1   
     8    4   12 1   
     9    4   32 1   
    10    5    8 1   
    11    6    7 1   
    12    7   33 1   
    13    7   34 1   
    14    7   35 1   
    15    8    9 1   
    16    8   11 1   
    17    9   10 1   
    18   10   36 1   
    19   10   37 1   
    20   10   38 1   
    21   11   39 1   
    22   12   13 1   
    23   13   14 1   
    24   13   40 1   
    25   14   15 1   
    26   14   17 1   
    27   15   16 1   
    28   18   19 1   
    29   18   41 1   
    30   20   21 1   
    31   21   22 1   
    32   22   23 1   
    33   23   28 1   
    34   24   25 1   
    35   24   44 1   
    36   25   45 1   
    37   26   27 1   
    38   26   46 1   
    39   27   47 1   
@<TRIPOS>SUBSTRUCTURE
     1 7PY         1 TEMP              0 ****  ****    0 ROOT
