@<TRIPOS>MOLECULE
7PY
   47    50     1     0     0
SMALL
bcc


@<TRIPOS>ATOM
      1 CAX        -0.3200   -0.1380    0.1780 c3        1 7PY      0.110700
      2 OAW         1.0920   -0.2970    0.2670 os        1 7PY     -0.312900
      3 CAS         1.6470   -0.1320    1.5190 ca        1 7PY      0.148600
      4 CAR         0.9030   -0.0030    2.6930 ca        1 7PY     -0.235500
      5 CAT         3.0580   -0.1170    1.5510 ca        1 7PY      0.030100
      6 OAY         3.7640   -0.1060    0.3630 os        1 7PY     -0.308900
      7 CAZ         4.4430   -1.3340    0.0890 c3        1 7PY      0.115700
      8 CAU         3.7030    0.0000    2.7990 ca        1 7PY      0.148600
      9 OBA         5.0820   -0.0400    2.7510 os        1 7PY     -0.312900
     10 CBB         5.7630    0.1720    3.9830 c3        1 7PY      0.110700
     11 CAV         2.9690    0.1380    3.9820 ca        1 7PY     -0.235500
     12 CAF         1.5640    0.1350    3.9340 ca        1 7PY      0.189600
     13 NAE         0.7940    0.3600    5.1010 nu        1 7PY     -0.704300
     14 CAD         0.8360   -0.5250    6.2040 ca        1 7PY      0.873900
     15 NAG        -0.2700   -0.4770    7.0380 nb        1 7PY     -0.727000
     16 CAH        -0.1610   -1.2510    8.1470 ca        1 7PY      0.514800
     17 NAC         1.9760   -1.3130    6.3940 nb        1 7PY     -0.741000
     18 CAB         2.0230   -2.0750    7.4890 ca        1 7PY      0.502200
     19 CAA         0.9890   -2.1030    8.4340 ca        1 7PY     -0.363400
     20 CAL         0.7120   -2.7840    9.6740 cc        1 7PY     -0.133200
     21 CAK        -0.5370   -2.3680   10.1020 cd        1 7PY     -0.112100
     22 NAI        -1.1040   -1.4600    9.1760 na        1 7PY     -0.219900
     23 CAJ        -2.2840   -0.7170    9.4140 ca        1 7PY      0.509800
     24 CAM        -3.3820   -1.3580   10.0530 ca        1 7PY     -0.258300
     25 CAN        -4.5460   -0.6230   10.2740 ca        1 7PY     -0.078000
     26 CAO        -4.6070    0.7070    9.8620 ca        1 7PY     -0.259300
     27 CAP        -3.4740    1.2590    9.2380 ca        1 7PY      0.417200
     28 NAQ        -2.3320    0.5930    9.0150 nb        1 7PY     -0.652000
     29 HAX1       -0.6350    0.8640    0.5590 h1        1 7PY      0.046367
     30 HAX2       -0.5190   -0.2240   -0.9210 h1        1 7PY      0.046367
     31 HAX3       -0.8420   -0.9530    0.7360 h1        1 7PY      0.046367
     32 HAR        -0.1960   -0.0110    2.6510 ha        1 7PY      0.152500
     33 HAZ1        3.7090   -2.1680   -0.0160 h1        1 7PY      0.040367
     34 HAZ2        4.9620   -1.1350   -0.8810 h1        1 7PY      0.040367
     35 HAZ3        5.1800   -1.5580    0.8980 h1        1 7PY      0.040367
     36 HBB1        5.5040    1.1700    4.4130 h1        1 7PY      0.046367
     37 HBB2        6.8430    0.1380    3.6880 h1        1 7PY      0.046367
     38 HBB3        5.5260   -0.6430    4.7100 h1        1 7PY      0.046367
     39 HAV         3.4890    0.2500    4.9450 ha        1 7PY      0.152500
     40 HAE        -0.1160    0.7370    4.9160 hn        1 7PY      0.438800
     41 HAB         2.9320   -2.6940    7.6090 h4        1 7PY      0.029100
     42 HAL         1.3690   -3.4910   10.1720 ha        1 7PY      0.163000
     43 HAK        -1.0960   -2.6420   10.9990 h4        1 7PY      0.174000
     44 HAM        -3.3220   -2.4110   10.3590 ha        1 7PY      0.150000
     45 HAN        -5.4090   -1.0980   10.7650 ha        1 7PY      0.143000
     46 HAO        -5.5100    1.3120   10.0150 ha        1 7PY      0.149000
     47 HAP        -3.4700    2.3110    8.8960 h4        1 7PY      0.030100
@<TRIPOS>BOND
     1    1    2 1   
     2    1   29 1   
     3    1   30 1   
     4    1   31 1   
     5    2    3 1   
     6    3    4 ar  
     7    3    5 ar  
     8    4   12 ar  
     9    4   32 1   
    10    5    6 1   
    11    5    8 ar  
    12    6    7 1   
    13    7   33 1   
    14    7   34 1   
    15    7   35 1   
    16    8    9 1   
    17    8   11 ar  
    18    9   10 1   
    19   10   36 1   
    20   10   37 1   
    21   10   38 1   
    22   11   12 ar  
    23   11   39 1   
    24   12   13 1   
    25   13   14 1   
    26   13   40 1   
    27   14   15 ar  
    28   14   17 ar  
    29   15   16 ar  
    30   16   19 ar  
    31   16   22 1   
    32   17   18 ar  
    33   18   19 ar  
    34   18   41 1   
    35   19   20 1   
    36   20   21 2   
    37   20   42 1   
    38   21   22 1   
    39   21   43 1   
    40   22   23 1   
    41   23   24 ar  
    42   23   28 ar  
    43   24   25 ar  
    44   24   44 1   
    45   25   26 ar  
    46   25   45 1   
    47   26   27 ar  
    48   26   46 1   
    49   27   28 ar  
    50   27   47 1   
@<TRIPOS>SUBSTRUCTURE
     1 7PY         1 TEMP              0 ****  ****    0 ROOT
