@<TRIPOS>MOLECULE
7R9
   74    77     1     0     0
SMALL
bcc


@<TRIPOS>ATOM
      1 C36        -6.5400    0.0250    1.1430 cc        1 7R9     -0.079000
      2 C35        -7.4080   -0.8030    0.3800 cc        1 7R9     -0.166000
      3 C34        -6.7800   -1.2710   -0.7650 cd        1 7R9     -0.028700
      4 CL         -7.4850   -2.2690   -1.9050 cl        1 7R9     -0.025400
      5 S33        -5.2020   -0.7180   -0.8800 ss        1 7R9      0.115200
      6 C32        -5.2910    0.1520    0.5470 cd        1 7R9     -0.206700
      7 C31        -4.2250    0.9660    1.1520 c         1 7R9      0.713700
      8 O42        -4.3770    1.5360    2.2520 o         1 7R9     -0.599100
      9 N30        -3.0370    1.0930    0.4500 n         1 7R9     -0.591900
     10 C22        -1.9630    1.8890    0.9690 c3        1 7R9      0.084000
     11 C19        -0.5700    1.4740    0.4110 c3        1 7R9      0.173500
     12 C20         0.4370    2.4930    0.9990 c         1 7R9      0.651100
     13 O41         0.9310    2.3130    2.1290 o         1 7R9     -0.592100
     14 N21         0.8080    3.5750    0.2310 n         1 7R9     -0.464800
     15 C23         1.6390    4.6340    0.7780 c3        1 7R9      0.086000
     16 C26         0.1360    4.0000   -0.9800 c3        1 7R9      0.088000
     17 C25         0.5690    5.4460   -1.2690 c3        1 7R9     -0.091400
     18 C24         1.2590    5.9460    0.0220 c3        1 7R9      0.167500
     19 N27         2.4010    6.8270   -0.2140 n3        1 7R9     -0.724600
     20 C29         2.0480    7.9890   -1.0020 c3        1 7R9      0.150100
     21 C28         3.0840    7.1880    1.0110 c3        1 7R9      0.150100
     22 N18        -0.1940    0.1270    0.7320 n3        1 7R9     -0.905100
     23 S17        -0.4330   -1.1290   -0.2400 sy        1 7R9      1.531200
     24 O38        -0.7040   -2.2950    0.5070 o         1 7R9     -0.667800
     25 O39        -1.3830   -0.7770   -1.2340 o         1 7R9     -0.667800
     26 C9          1.0720   -1.3660   -0.9830 ca        1 7R9     -0.384500
     27 C8          2.2140   -1.7510   -0.2540 ca        1 7R9      0.189100
     28 O13         2.1040   -1.7830    1.1310 os        1 7R9     -0.418900
     29 C14         1.7460   -3.0390    1.7260 c3        1 7R9      0.594700
     30 F16         2.9200   -3.6760    2.0010 f         1 7R9     -0.228800
     31 F15         1.2720   -2.6260    2.9340 f         1 7R9     -0.228800
     32 C10         1.1850   -1.2190   -2.3680 ca        1 7R9     -0.028000
     33 C11         2.3960   -1.4470   -3.0130 ca        1 7R9     -0.145000
     34 C12         3.5250   -1.8060   -2.2870 ca        1 7R9     -0.055000
     35 C7          3.4680   -1.9560   -0.8820 ca        1 7R9      0.041600
     36 N3          4.6220   -2.3200   -0.1450 n         1 7R9     -0.388000
     37 C2          5.0610   -1.4070    0.8940 c3        1 7R9      0.096000
     38 C1          5.9890   -2.0460    1.9220 c3        1 7R9     -0.094400
     39 C6          7.1230   -2.7640    1.2270 c3        1 7R9     -0.081400
     40 C5          6.5820   -3.8280    0.3030 c3        1 7R9     -0.142400
     41 C4          5.4340   -3.3730   -0.5760 c         1 7R9      0.706500
     42 O40         5.1870   -3.9760   -1.6390 o         1 7R9     -0.641500
     43 H36        -6.8160    0.5040    2.0880 ha        1 7R9      0.179000
     44 H35        -8.4350   -1.0330    0.6710 ha        1 7R9      0.169000
     45 H30        -2.9210    0.6540   -0.4350 hn        1 7R9      0.332500
     46 H221       -2.1250    2.9710    0.6890 h1        1 7R9      0.069700
     47 H222       -1.9560    1.8220    2.0960 h1        1 7R9      0.069700
     48 H19        -0.5960    1.5630   -0.7200 h1        1 7R9      0.072700
     49 H18         0.2520    0.0350    1.6220 hn        1 7R9      0.486800
     50 H231        1.4610    4.7450    1.8830 h1        1 7R9      0.069200
     51 H232        2.7170    4.3590    0.6150 h1        1 7R9      0.069200
     52 H261        0.4310    3.3250   -1.8310 h1        1 7R9      0.045200
     53 H262       -0.9820    3.9420   -0.8610 h1        1 7R9      0.045200
     54 H24         0.4780    6.4820    0.6460 h1        1 7R9      0.030700
     55 H251        1.2700    5.4600   -2.1410 hc        1 7R9      0.063200
     56 H252       -0.3140    6.0820   -1.5150 hc        1 7R9      0.063200
     57 H291        1.3050    8.6610   -0.4910 h1        1 7R9      0.035533
     58 H292        2.9810    8.5790   -1.2050 h1        1 7R9      0.035533
     59 H293        1.6150    7.6590   -1.9810 h1        1 7R9      0.035533
     60 H281        3.4360    6.2580    1.5290 h1        1 7R9      0.035533
     61 H282        3.9790    7.8110    0.7510 h1        1 7R9      0.035533
     62 H283        2.4370    7.7710    1.7230 h1        1 7R9      0.035533
     63 H10         0.2930   -0.9290   -2.9530 ha        1 7R9      0.163000
     64 H14         1.0110   -3.6420    1.1200 h3        1 7R9      0.146700
     65 H11         2.4640   -1.3430   -4.1070 ha        1 7R9      0.149000
     66 H12         4.4750   -2.0020   -2.8150 ha        1 7R9      0.166000
     67 H21C        5.5960   -0.5400    0.4060 h1        1 7R9      0.057700
     68 H22C        4.1540   -1.0000    1.4280 h1        1 7R9      0.057700
     69 H11C        6.3850   -1.2370    2.5880 hc        1 7R9      0.063200
     70 H12C        5.4100   -2.7660    2.5580 hc        1 7R9      0.063200
     71 H61C        7.7370   -2.0270    0.6440 hc        1 7R9      0.051200
     72 H62C        7.8010   -3.2380    1.9840 hc        1 7R9      0.051200
     73 H51C        7.3930   -4.2110   -0.3710 hc        1 7R9      0.081200
     74 H52C        6.1950   -4.6970    0.9020 hc        1 7R9      0.081200
@<TRIPOS>BOND
     1    1    2 1   
     2    1    6 2   
     3    1   43 1   
     4    2    3 2   
     5    2   44 1   
     6    3    4 1   
     7    3    5 1   
     8    5    6 1   
     9    6    7 1   
    10    7    8 2   
    11    7    9 1   
    12    9   10 1   
    13    9   45 1   
    14   10   11 1   
    15   10   46 1   
    16   10   47 1   
    17   11   12 1   
    18   11   22 1   
    19   11   48 1   
    20   12   13 2   
    21   12   14 1   
    22   14   15 1   
    23   14   16 1   
    24   15   18 1   
    25   15   50 1   
    26   15   51 1   
    27   16   17 1   
    28   16   52 1   
    29   16   53 1   
    30   17   18 1   
    31   17   55 1   
    32   17   56 1   
    33   18   19 1   
    34   18   54 1   
    35   19   20 1   
    36   19   21 1   
    37   20   57 1   
    38   20   58 1   
    39   20   59 1   
    40   21   60 1   
    41   21   61 1   
    42   21   62 1   
    43   22   23 1   
    44   22   49 1   
    45   23   24 2   
    46   23   25 2   
    47   23   26 1   
    48   26   27 ar  
    49   26   32 ar  
    50   27   28 1   
    51   27   35 ar  
    52   28   29 1   
    53   29   30 1   
    54   29   31 1   
    55   29   64 1   
    56   32   33 ar  
    57   32   63 1   
    58   33   34 ar  
    59   33   65 1   
    60   34   35 ar  
    61   34   66 1   
    62   35   36 1   
    63   36   37 1   
    64   36   41 1   
    65   37   38 1   
    66   37   67 1   
    67   37   68 1   
    68   38   39 1   
    69   38   69 1   
    70   38   70 1   
    71   39   40 1   
    72   39   71 1   
    73   39   72 1   
    74   40   41 1   
    75   40   73 1   
    76   40   74 1   
    77   41   42 2   
@<TRIPOS>SUBSTRUCTURE
     1 7R9         1 TEMP              0 ****  ****    0 ROOT
