@<TRIPOS>MOLECULE
7R9
   77    79     1     0     0
SMALL
bcc


@<TRIPOS>ATOM
      1 C36       -56.3340  241.9260 -316.5710 cc        1 7R9      0.013000
      2 C35       -55.1250  241.5840 -315.9310 cc        1 7R9     -0.168000
      3 C34       -54.0690  242.3960 -316.3470 cd        1 7R9      0.066300
      4 Cl        -52.5070  242.2800 -315.8080 cl        1 7R9      0.076600
      5 S33       -54.5690  243.5250 -317.4800 ss        1 7R9      0.088200
      6 C32       -56.1680  243.0000 -317.4670 cd        1 7R9     -0.310700
      7 C31       -57.2780  243.4920 -318.2170 c         1 7R9      0.623700
      8 O42       -58.4480  243.1310 -318.2220 o         1 7R9     -0.438100
      9 N30       -56.9770  244.6420 -319.1930 ny        1 7R9     -0.669800
     10 C22       -57.8740  245.8040 -318.9570 c3        1 7R9      0.104800
     11 C19       -57.9080  246.7960 -320.1540 c3        1 7R9      0.103500
     12 C20       -58.7320  248.0140 -319.6720 c         1 7R9      0.616100
     13 O41       -58.9840  248.1760 -318.4670 o         1 7R9     -0.550100
     14 N21       -59.0850  248.9870 -320.6040 n         1 7R9     -0.462800
     15 C23       -59.8890  250.1180 -320.1730 c3        1 7R9      0.063000
     16 C26       -59.2750  248.7120 -322.0170 c3        1 7R9      0.080000
     17 C25       -60.2340  249.7740 -322.5840 c3        1 7R9     -0.111400
     18 C24       -60.8300  250.4970 -321.3580 c3        1 7R9      0.098500
     19 N27       -60.9800  251.9820 -321.5410 nx        1 7R9     -0.673400
     20 C29       -61.8600  252.2900 -322.7020 c3        1 7R9      0.079600
     21 C28       -61.5200  252.6210 -320.3080 c3        1 7R9      0.079600
     22 N18       -56.5820  247.1080 -320.6150 n8        1 7R9     -0.938800
     23 S17        67.9950 -350.2360  467.9310 s4        1 7R9      1.665300
     24 O38        66.8900 -350.7950  467.3950 o         1 7R9     -0.394900
     25 O39        68.2170 -350.2390  469.2650 o         1 7R9     -0.394900
     26 C9         69.0560 -349.5660  467.0300 ca        1 7R9     -0.630500
     27 C8         68.9980 -349.5440  465.5960 ca        1 7R9      0.248100
     28 O13        67.9330 -350.2310  465.0490 os        1 7R9     -0.429900
     29 C14        66.7700 -349.5520  464.5600 c3        1 7R9      0.618700
     30 F16        66.3530 -348.7090  465.5440 f         1 7R9     -0.224800
     31 F15        67.1160 -348.7620  463.5170 f         1 7R9     -0.224800
     32 C10        70.1750 -348.9250  467.6380 ca        1 7R9      0.020000
     33 C11        71.1630 -348.3350  466.8810 ca        1 7R9     -0.143000
     34 C12        71.1180 -348.3850  465.4860 ca        1 7R9      0.048000
     35 C7         70.0440 -349.0200  464.8050 ca        1 7R9      0.052600
     36 N3         70.0240 -349.0730  463.3980 n         1 7R9     -0.403000
     37 C2         69.9310 -350.3810  462.7700 c3        1 7R9      0.093000
     38 C1         69.5180 -350.3290  461.3020 c3        1 7R9     -0.092400
     39 C6         70.3760 -349.3440  460.5460 c3        1 7R9     -0.086400
     40 C5         70.2470 -347.9640  461.1440 c3        1 7R9     -0.139400
     41 C4         70.3660 -347.9250  462.6490 c         1 7R9      0.714500
     42 O40        70.7060 -346.8910  463.2480 o         1 7R9     -0.620500
     43 H36       -57.2910  241.4170 -316.3940 ha        1 7R9      0.199000
     44 H35       -55.0330  240.7750 -315.1950 ha        1 7R9      0.210000
     45 H30       -57.1220  244.2930 -320.1480 hn        1 7R9      0.457800
     46 H221      -57.5330  246.3350 -318.0200 hx        1 7R9      0.133200
     47 H222      -58.9230  245.4220 -318.7840 hx        1 7R9      0.133200
     48 H19       -58.4740  246.3010 -321.0010 h1        1 7R9      0.090700
     49 H18       -56.0940  247.7240 -319.9950 hn        1 7R9      0.394300
     50 H231      -60.4950  249.8610 -319.2580 h1        1 7R9      0.092700
     51 H232      -59.1880  250.9590 -319.9060 h1        1 7R9      0.092700
     52 H261      -59.7030  247.6840 -322.1820 h1        1 7R9      0.071200
     53 H262      -58.2800  248.7680 -322.5420 h1        1 7R9      0.071200
     54 H24       -61.8680  250.1000 -321.1490 hx        1 7R9      0.121700
     55 H251      -59.6670  250.4670 -323.2570 hc        1 7R9      0.091700
     56 H252      -61.0430  249.2910 -323.1870 hc        1 7R9      0.091700
     57 H291      -62.8890  251.8790 -322.5150 hx        1 7R9      0.112367
     58 H292      -61.4340  251.8280 -323.6330 hx        1 7R9      0.112367
     59 H293      -61.9220  253.4050 -322.8300 hx        1 7R9      0.112367
     60 H281      -61.6050  253.7300 -320.4770 hx        1 7R9      0.112367
     61 H282      -62.5360  252.2010 -320.0800 hx        1 7R9      0.112367
     62 H283      -60.8280  252.4250 -319.4450 hx        1 7R9      0.112367
     63 H10        70.2460 -348.9090  468.7440 ha        1 7R9      0.182000
     64 H14        66.0460 -350.3870  464.3120 h3        1 7R9      0.171700
     65 H11        72.0110 -347.8260  467.3770 ha        1 7R9      0.190000
     66 H12        71.9330 -347.9100  464.9000 ha        1 7R9      0.204000
     67 H21C       70.9380 -350.8860  462.8490 h1        1 7R9      0.054700
     68 H22C       69.1820 -351.0040  463.3380 h1        1 7R9      0.054700
     69 H11C       68.4370 -350.0400  461.2180 hc        1 7R9      0.068700
     70 H12C       69.6330 -351.3590  460.8730 hc        1 7R9      0.068700
     71 H61C       71.4480 -349.6750  460.5700 hc        1 7R9      0.067700
     72 H62C       70.0640 -349.3100  459.4680 hc        1 7R9      0.067700
     73 H51C       71.0330 -347.2780  460.7260 hc        1 7R9      0.097200
     74 H52C       69.2430 -347.5220  460.8930 hc        1 7R9      0.097200
     75 H302      -55.9990  244.9390 -319.1130 hn        1 7R9      0.457800
     76 H271      -60.0470  252.3760 -321.7280 hn        1 7R9      0.452800
     77 H182      -56.5840  247.4810 -321.5440 hn        1 7R9      0.394300
@<TRIPOS>BOND
     1    1    2 1   
     2    1    6 2   
     3    1   43 1   
     4    2    3 2   
     5    2   44 1   
     6    3    4 1   
     7    3    5 1   
     8    5    6 1   
     9    6    7 1   
    10    7    8 2   
    11    7    9 1   
    12    9   10 1   
    13    9   45 1   
    14    9   75 1   
    15   10   11 1   
    16   10   46 1   
    17   10   47 1   
    18   11   12 1   
    19   11   22 1   
    20   11   48 1   
    21   12   13 2   
    22   12   14 1   
    23   14   15 1   
    24   14   16 1   
    25   15   18 1   
    26   15   50 1   
    27   15   51 1   
    28   16   17 1   
    29   16   52 1   
    30   16   53 1   
    31   17   18 1   
    32   17   55 1   
    33   17   56 1   
    34   18   19 1   
    35   18   54 1   
    36   19   20 1   
    37   19   21 1   
    38   19   76 1   
    39   20   57 1   
    40   20   58 1   
    41   20   59 1   
    42   21   60 1   
    43   21   61 1   
    44   21   62 1   
    45   22   49 1   
    46   22   77 1   
    47   23   24 1   
    48   23   25 1   
    49   23   26 1   
    50   26   27 ar  
    51   26   32 ar  
    52   27   28 1   
    53   27   35 ar  
    54   28   29 1   
    55   29   30 1   
    56   29   31 1   
    57   29   64 1   
    58   32   33 ar  
    59   32   63 1   
    60   33   34 ar  
    61   33   65 1   
    62   34   35 ar  
    63   34   66 1   
    64   35   36 1   
    65   36   37 1   
    66   36   41 1   
    67   37   38 1   
    68   37   67 1   
    69   37   68 1   
    70   38   39 1   
    71   38   69 1   
    72   38   70 1   
    73   39   40 1   
    74   39   71 1   
    75   39   72 1   
    76   40   41 1   
    77   40   73 1   
    78   40   74 1   
    79   41   42 2   
@<TRIPOS>SUBSTRUCTURE
     1 7R9         1 TEMP              0 ****  ****    0 ROOT
