@<TRIPOS>MOLECULE
7R9
   77    79     1     0     0
SMALL
bcc


@<TRIPOS>ATOM
      1 C36       -35.0380  128.1940 -167.5710 cc        1 7R9      0.013000
      2 C35       -36.2650  128.7070 -168.0420 cc        1 7R9     -0.168000
      3 C34       -37.3460  128.2360 -167.2950 cd        1 7R9      0.066300
      4 CL        -38.9330  128.6270 -167.5640 cl        1 7R9      0.076600
      5 S33       -36.8470  127.2070 -166.0700 ss        1 7R9      0.088200
      6 C32       -35.2160  127.3380 -166.4660 cd        1 7R9     -0.310700
      7 C31       -34.0900  126.7160 -165.8490 c         1 7R9      0.623700
      8 O42       -32.9000  126.7980 -166.1190 o         1 7R9     -0.438100
      9 N30       -34.4010  125.7740 -164.6730 n4        1 7R9     -0.669800
     10 C22       -33.5940  126.1190 -163.4720 c3        1 7R9      0.104800
     11 C19       -33.5360  124.9670 -162.4300 c3        1 7R9      0.103500
     12 C20       -32.8220  125.5540 -161.1890 c         1 7R9      0.616100
     13 O41       -32.6910  126.7810 -161.0510 o         1 7R9     -0.550100
     14 N21       -32.4360  124.6840 -160.1730 n         1 7R9     -0.462800
     15 C23       -31.7360  125.2180 -159.0160 c3        1 7R9      0.063000
     16 C26       -32.1050  123.2880 -160.3940 c3        1 7R9      0.080000
     17 C25       -31.1870  122.8310 -159.2460 c3        1 7R9     -0.111400
     18 C24       -30.7350  124.1220 -158.5330 c3        1 7R9      0.098500
     19 N27       -30.6740  124.0010 -157.0350 n4        1 7R9     -0.673400
     20 C29       -29.7380  122.9170 -156.6250 c3        1 7R9      0.079600
     21 C28       -30.2650  125.2900 -156.4100 c3        1 7R9      0.079600
     22 N18       -34.8440  124.4240 -162.1730 n3        1 7R9     -0.938800
     23 S17        37.0260 -176.2280  242.8030 s4        1 7R9      1.665300
     24 O38        37.1310 -175.1630  241.9820 o         1 7R9     -0.394900
     25 O39        38.0010 -176.5440  243.6850 o         1 7R9     -0.394900
     26 C9         35.7760 -177.1350  242.7600 ca        1 7R9     -0.630500
     27 C8         34.6270 -176.8820  241.9360 ca        1 7R9      0.248100
     28 O13        34.6820 -175.7060  241.2170 os        1 7R9     -0.429900
     29 C14        34.9950 -175.6890  239.8190 c3        1 7R9      0.618700
     30 F16        36.1120 -176.4480  239.6440 f         1 7R9     -0.224800
     31 F15        34.0100 -176.3130  239.1320 f         1 7R9     -0.224800
     32 C10        35.7370 -178.3000  243.5800 ca        1 7R9      0.020000
     33 C11        34.6380 -179.1310  243.5940 ca        1 7R9     -0.143000
     34 C12        33.5070 -178.8310  242.8320 ca        1 7R9      0.048000
     35 C7         33.4620 -177.6770  242.0010 ca        1 7R9      0.052600
     36 N3         32.3070 -177.3850  241.2510 n         1 7R9     -0.403000
     37 C2         31.6800 -176.0880  241.4450 c3        1 7R9      0.093000
     38 C1         30.7120 -175.7020  240.3310 c3        1 7R9     -0.092400
     39 C6         29.7330 -176.8230  240.0710 c3        1 7R9     -0.086400
     40 C5         30.4660 -178.0810  239.6730 c3        1 7R9     -0.139400
     41 C4         31.6450 -178.4200  240.5540 c         1 7R9      0.714500
     42 O40        32.0790 -179.5820  240.6410 o         1 7R9     -0.620500
     43 H36       -34.0610  128.4320 -168.0120 ha        1 7R9      0.199000
     44 H35       -36.3520  129.3920 -168.8950 ha        1 7R9      0.210000
     45 H30       -35.3980  125.8040 -164.4380 hn        1 7R9      0.457800
     46 H221      -34.0320  127.0480 -163.0010 hx        1 7R9      0.133200
     47 H222      -32.5380  126.3530 -163.8000 hx        1 7R9      0.133200
     48 H19       -32.8860  124.1430 -162.8550 h1        1 7R9      0.090700
     49 H18       -34.7990  123.5170 -161.7540 hn        1 7R9      0.394300
     50 H231      -31.1830  126.1650 -159.2760 h1        1 7R9      0.092700
     51 H232      -32.5050  125.4650 -158.2300 h1        1 7R9      0.092700
     52 H261      -31.5830  123.1410 -161.3810 h1        1 7R9      0.071200
     53 H262      -33.0510  122.6790 -160.4010 h1        1 7R9      0.071200
     54 H24       -29.6920  124.3990 -158.8680 hx        1 7R9      0.121700
     55 H251      -31.7530  122.1420 -158.5680 hc        1 7R9      0.091700
     56 H252      -30.3030  122.2740 -159.6470 hc        1 7R9      0.091700
     57 H291      -30.0650  121.9430 -157.0780 hx        1 7R9      0.112367
     58 H292      -28.6990  123.1640 -156.9740 hx        1 7R9      0.112367
     59 H293      -29.7440  122.8310 -155.5040 hx        1 7R9      0.112367
     60 H281      -29.2350  125.5690 -156.7610 hx        1 7R9      0.112367
     61 H282      -30.9920  126.0970 -156.6950 hx        1 7R9      0.112367
     62 H283      -30.2580  125.1690 -155.2920 hx        1 7R9      0.112367
     63 H10        36.6110 -178.5340  244.2190 ha        1 7R9      0.182000
     64 H14        35.1250 -174.5890  239.5790 h3        1 7R9      0.171700
     65 H11        34.6400 -180.0410  244.2240 ha        1 7R9      0.190000
     66 H12        32.6320 -179.5120  242.8690 ha        1 7R9      0.204000
     67 H21C       31.1220 -176.1060  242.4270 h1        1 7R9      0.054700
     68 H22C       32.4850 -175.3020  241.5160 h1        1 7R9      0.054700
     69 H11C       30.1690 -174.7740  240.6490 hc        1 7R9      0.068700
     70 H12C       31.2810 -175.4650  239.3940 hc        1 7R9      0.068700
     71 H61C       29.1160 -177.0110  240.9890 hc        1 7R9      0.067700
     72 H62C       29.0260 -176.5320  239.2490 hc        1 7R9      0.067700
     73 H51C       30.8700 -177.9830  238.6270 hc        1 7R9      0.097200
     74 H52C       29.7700 -178.9630  239.6860 hc        1 7R9      0.097200
     75 H302      -34.1750  124.8160 -164.9660 hn        1 7R9      0.457800
     76 H271      -31.6170  123.7610 -156.6960 hn        1 7R9      0.452800
     77 H182      -35.4110  125.0360 -161.6200 hn        1 7R9      0.394300
@<TRIPOS>BOND
     1    1    2 1   
     2    1    6 2   
     3    1   43 1   
     4    2    3 2   
     5    2   44 1   
     6    3    4 1   
     7    3    5 1   
     8    5    6 1   
     9    6    7 1   
    10    7    8 2   
    11    7    9 1   
    12    9   10 1   
    13    9   45 1   
    14    9   75 1   
    15   10   11 1   
    16   10   46 1   
    17   10   47 1   
    18   11   12 1   
    19   11   22 1   
    20   11   48 1   
    21   12   13 2   
    22   12   14 1   
    23   14   15 1   
    24   14   16 1   
    25   15   18 1   
    26   15   50 1   
    27   15   51 1   
    28   16   17 1   
    29   16   52 1   
    30   16   53 1   
    31   17   18 1   
    32   17   55 1   
    33   17   56 1   
    34   18   19 1   
    35   18   54 1   
    36   19   20 1   
    37   19   21 1   
    38   19   76 1   
    39   20   57 1   
    40   20   58 1   
    41   20   59 1   
    42   21   60 1   
    43   21   61 1   
    44   21   62 1   
    45   22   49 1   
    46   22   77 1   
    47   23   24 1   
    48   23   25 1   
    49   23   26 1   
    50   26   27 ar  
    51   26   32 ar  
    52   27   28 1   
    53   27   35 ar  
    54   28   29 1   
    55   29   30 1   
    56   29   31 1   
    57   29   64 1   
    58   32   33 ar  
    59   32   63 1   
    60   33   34 ar  
    61   33   65 1   
    62   34   35 ar  
    63   34   66 1   
    64   35   36 1   
    65   36   37 1   
    66   36   41 1   
    67   37   38 1   
    68   37   67 1   
    69   37   68 1   
    70   38   39 1   
    71   38   69 1   
    72   38   70 1   
    73   39   40 1   
    74   39   71 1   
    75   39   72 1   
    76   40   41 1   
    77   40   73 1   
    78   40   74 1   
    79   41   42 2   
@<TRIPOS>SUBSTRUCTURE
     1 7R9         1 TEMP              0 ****  ****    0 ROOT
