@<TRIPOS>MOLECULE
7R9
   74    70     1     0     0
SMALL
bcc


@<TRIPOS>ATOM
      1 C36         2.6500    1.6620   -6.0930 c1        1 7R9     -0.125000
      2 C35         4.1350    2.2360   -6.0920 c1        1 7R9     -0.125000
      3 C34         4.4700    2.6300   -4.7300 c1        1 7R9     -0.421500
      4 CL          5.9340    3.4150   -4.2250 cl        1 7R9      0.051000
      5 S33         3.2230    2.3260   -3.8170 ss        1 7R9      0.685000
      6 C32         2.1270    1.7290   -4.7100 c1        1 7R9     -0.421500
      7 C31         0.7790    1.2100   -4.2370 c1        1 7R9      0.382000
      8 O42         0.0110    0.6770   -5.0340 o         1 7R9     -0.382000
      9 N30         0.3650    1.4010   -2.8000 n3        1 7R9     -0.382000
     10 C22        -0.8800    0.8740   -2.3350 c3        1 7R9     -0.046000
     11 C19        -0.9290    0.9460   -0.8390 c3        1 7R9      0.000000
     12 C20        -2.4300    0.8270   -0.3560 c2        1 7R9      0.301000
     13 O41        -2.7730   -0.1130    0.2920 o         1 7R9     -0.372000
     14 N21        -3.3810    1.9040   -0.6410 n         1 7R9     -0.318000
     15 C23        -4.6820    1.9850   -0.2420 c3        1 7R9     -0.028000
     16 C26        -3.1180    3.1880   -1.4530 c3        1 7R9     -0.042000
     17 C25        -4.5880    3.8590   -1.7110 c3        1 7R9     -0.168000
     18 C24        -5.4530    2.9230   -1.3640 c3        1 7R9     -0.031000
     19 N27        -6.6340    3.5230   -0.7830 n3        1 7R9     -0.250000
     20 C29        -7.1140    4.5420   -1.6380 c3        1 7R9     -0.124500
     21 C28        -7.6600    2.5130   -0.6130 c3        1 7R9     -0.124500
     22 N18        -0.1790   -0.1080   -0.2970 n3        1 7R9     -0.888000
     23 S17         1.3060    0.1960    0.4020 s4        1 7R9      2.092800
     24 O38         2.3690   -0.1700   -0.4620 o         1 7R9     -0.557400
     25 O39         1.5380    1.6280    0.5440 o         1 7R9     -0.557400
     26 C9          1.4320   -0.6430    1.9740 c1        1 7R9     -0.813000
     27 C8          2.2000   -1.8470    2.0830 c2        1 7R9      0.223000
     28 O13         2.8870   -2.3240    0.9920 os        1 7R9     -0.294000
     29 C14         4.1750   -1.8190    0.8670 c3        1 7R9      0.364000
     30 F16         4.3610   -1.3630   -0.4140 f         1 7R9     -0.154500
     31 F15         4.3490   -0.7880    1.7480 f         1 7R9     -0.154500
     32 C10         0.8020   -0.1200    3.0900 c1        1 7R9      0.000000
     33 C11         0.9160   -0.7780    4.3460 c1        1 7R9     -0.106000
     34 C12         1.6650   -1.9540    4.4520 c1        1 7R9     -0.106000
     35 C7          2.3130   -2.4900    3.3060 c1        1 7R9     -0.028000
     36 N3          3.0660   -3.7180    3.4070 n         1 7R9     -0.297000
     37 C2          4.0810   -3.8780    4.4710 c3        1 7R9     -0.039000
     38 C1          5.0850   -4.8660    4.1740 c3        1 7R9     -0.168000
     39 C6          4.5010   -6.1740    3.7670 c3        1 7R9     -0.162000
     40 C5          3.5620   -6.0550    2.6600 c3        1 7R9     -0.176000
     41 C4          2.4930   -4.9350    2.9950 c2        1 7R9      0.287000
     42 O40         1.4250   -4.9380    2.4320 o         1 7R9     -0.320000
     43 H36         2.1460    1.3100   -6.9050 DU        1 7R9      0.171500
     44 H35         4.7320    2.3120   -6.8870 DU        1 7R9      0.171500
     45 H30         0.8530    1.9040   -2.2690 hn        1 7R9      0.252000
     46 H221       -0.9660   -0.0330   -2.6110 h1        1 7R9      0.119500
     47 H222       -1.5860    1.3790   -2.6960 h1        1 7R9      0.119500
     48 H19        -0.5460    1.8250   -0.5320 h1        1 7R9      0.130000
     49 H18        -0.5350   -0.9650   -0.2740 hn        1 7R9      0.274000
     50 H231       -4.7380    2.3910    0.6170 h1        1 7R9      0.105500
     51 H232       -5.0970    1.0560   -0.2190 h1        1 7R9      0.105500
     52 H261       -2.7070    2.9670   -2.2880 h1        1 7R9      0.103000
     53 H262       -2.5780    3.7690   -0.9720 h1        1 7R9      0.103000
     54 H24        -5.7100    2.3570   -2.1850 h1        1 7R9      0.067000
     55 H251       -4.7050    4.1100   -2.7260 hc        1 7R9      0.102000
     56 H252       -4.7020    4.6480   -1.1520 hc        1 7R9      0.102000
     57 H291       -8.0810    4.7430   -1.4150 h1        1 7R9      0.073333
     58 H292       -7.0480    4.2390   -2.5800 h1        1 7R9      0.073333
     59 H293       -6.5730    5.3550   -1.5150 h1        1 7R9      0.073333
     60 H281       -8.5610    2.9710   -0.4180 h1        1 7R9      0.073333
     61 H282       -7.4260    1.9370    0.1220 h1        1 7R9      0.073333
     62 H283       -7.7330    2.0000   -1.4030 h1        1 7R9      0.073333
     63 H10         0.2320    0.7720    3.0070 ha        1 7R9      0.177000
     64 H14         4.8140   -2.5180    1.0580 h3        1 7R9      0.156000
     65 H11         0.4610   -0.4020    5.1510 ha        1 7R9      0.147500
     66 H12         1.7410   -2.3880    5.2800 ha        1 7R9      0.147500
     67 H21C        3.6090   -4.1420    5.3390 h1        1 7R9      0.091500
     68 H22C        4.5350   -2.9920    4.6090 h1        1 7R9      0.091500
     69 H11C        5.6420   -4.5390    3.4610 hc        1 7R9      0.097000
     70 H12C        5.6610   -5.0070    5.0020 hc        1 7R9      0.097000
     71 H61C        4.0420   -6.5580    4.5230 hc        1 7R9      0.094500
     72 H62C        5.2690   -6.8100    3.4850 hc        1 7R9      0.094500
     73 H51C        4.0430   -5.9450    1.7560 hc        1 7R9      0.119500
     74 H52C        3.1150   -6.8600    2.5240 hc        1 7R9      0.119500
@<TRIPOS>BOND
     1    1    2 1   
     2    1    6 1   
     3    2    3 1   
     4    3    5 1   
     5    5    6 1   
     6    7    8 1   
     7    7    9 1   
     8    9   10 1   
     9    9   45 1   
    10   10   11 1   
    11   10   46 1   
    12   10   47 1   
    13   11   12 1   
    14   11   22 1   
    15   11   48 1   
    16   12   13 1   
    17   12   14 1   
    18   14   15 1   
    19   14   16 1   
    20   15   18 1   
    21   15   50 1   
    22   15   51 1   
    23   16   17 1   
    24   16   52 1   
    25   16   53 1   
    26   17   18 1   
    27   17   55 1   
    28   17   56 1   
    29   18   19 1   
    30   18   54 1   
    31   19   20 1   
    32   19   21 1   
    33   20   57 1   
    34   20   58 1   
    35   20   59 1   
    36   21   60 1   
    37   21   61 1   
    38   21   62 1   
    39   22   23 1   
    40   22   49 1   
    41   23   24 1   
    42   23   25 1   
    43   26   27 1   
    44   26   32 1   
    45   27   28 1   
    46   27   35 1   
    47   28   29 1   
    48   29   30 1   
    49   29   31 1   
    50   29   64 1   
    51   32   63 1   
    52   33   34 1   
    53   33   65 1   
    54   34   66 1   
    55   35   36 1   
    56   36   37 1   
    57   36   41 1   
    58   37   38 1   
    59   37   67 1   
    60   37   68 1   
    61   38   39 1   
    62   38   69 1   
    63   38   70 1   
    64   39   40 1   
    65   39   71 1   
    66   39   72 1   
    67   40   41 1   
    68   40   73 1   
    69   40   74 1   
    70   41   42 1   
@<TRIPOS>SUBSTRUCTURE
     1 7R9         1 TEMP              0 ****  ****    0 ROOT
