@<TRIPOS>MOLECULE
7R9
   77    79     1     0     0
SMALL
bcc


@<TRIPOS>ATOM
      1 C36      -100.2570  211.1010 -244.4170 cc        1 7R9      0.013000
      2 C35       -99.5070  211.0340 -243.2240 cc        1 7R9     -0.168000
      3 C34       -99.7920  212.1010 -242.3700 cd        1 7R9      0.066300
      4 CL        -99.0990  212.3460 -240.8860 cl        1 7R9      0.076600
      5 S33      -100.9380  213.1300 -243.0320 ss        1 7R9      0.088200
      6 C32      -101.1030  212.2270 -244.4430 cd        1 7R9     -0.310700
      7 C31      -101.9400  212.4720 -245.5720 c         1 7R9      0.623700
      8 O42      -102.0760  211.8310 -246.6050 o         1 7R9     -0.438100
      9 N30      -102.7980  213.7480 -245.5120 n4        1 7R9     -0.669800
     10 C22      -104.2300  213.4540 -245.7860 c3        1 7R9      0.104800
     11 C19      -105.0450  214.7220 -246.1680 c3        1 7R9      0.103500
     12 C20      -106.5230  214.2680 -246.2390 c         1 7R9      0.616100
     13 O41      -106.8830  213.1910 -245.7380 o         1 7R9     -0.550100
     14 N21      -107.4610  215.1480 -246.7730 n         1 7R9     -0.462800
     15 C23      -108.8480  214.7230 -246.8750 c3        1 7R9      0.063000
     16 C26      -107.1420  216.1560 -247.7670 c3        1 7R9      0.080000
     17 C25      -108.4350  216.4950 -248.5300 c3        1 7R9     -0.111400
     18 C24      -109.4450  215.3920 -248.1520 c3        1 7R9      0.098500
     19 N27      -110.8490  215.8950 -247.9510 n4        1 7R9     -0.673400
     20 C29      -111.3580  216.5600 -249.1820 c3        1 7R9      0.079600
     21 C28      -111.7620  214.7870 -247.5560 c3        1 7R9      0.079600
     22 N18      -104.7900  215.8060 -245.2570 n3        1 7R9     -0.938800
     23 S17       133.7820 -305.6010  362.0960 s4        1 7R9      1.665300
     24 O38       132.6810 -304.8600  361.8570 o         1 7R9     -0.394900
     25 O39       133.6980 -306.8720  362.5510 o         1 7R9     -0.394900
     26 C9        135.1920 -305.0160  361.8600 ca        1 7R9     -0.630500
     27 C8        135.4410 -303.7150  361.3050 ca        1 7R9      0.248100
     28 O13       134.3060 -303.0280  360.9210 os        1 7R9     -0.429900
     29 C14       133.7570 -301.9710  361.7180 c3        1 7R9      0.618700
     30 F16       133.6660 -302.4330  362.9950 f         1 7R9     -0.224800
     31 F15       134.6290 -300.9380  361.7550 f         1 7R9     -0.224800
     32 C10       136.3340 -305.7970  362.2040 ca        1 7R9      0.020000
     33 C11       137.6130 -305.3300  361.9940 ca        1 7R9     -0.143000
     34 C12       137.8290 -304.0870  361.3950 ca        1 7R9      0.048000
     35 C7        136.7420 -303.2560  361.0070 ca        1 7R9      0.052600
     36 N3        136.9810 -302.0120  360.3930 n         1 7R9     -0.403000
     37 C2        136.3770 -301.7680  359.0930 c3        1 7R9      0.093000
     38 C1        136.3430 -300.2950  358.7000 c3        1 7R9     -0.092400
     39 C6        137.7090 -299.6720  358.8670 c3        1 7R9     -0.086400
     40 C5        138.1700 -299.7890  360.3000 c3        1 7R9     -0.139400
     41 C4        137.9880 -301.1620  360.9020 c         1 7R9      0.714500
     42 O40       138.6680 -301.5430  361.8700 o         1 7R9     -0.620500
     43 H36      -100.1890  210.3650 -245.2290 ha        1 7R9      0.199000
     44 H35       -98.7870  210.2370 -243.0010 ha        1 7R9      0.210000
     45 H30      -102.7090  214.2020 -244.5970 hn        1 7R9      0.457800
     46 H221     -104.6770  212.9650 -244.8710 hx        1 7R9      0.133200
     47 H222     -104.2910  212.7220 -246.6440 hx        1 7R9      0.133200
     48 H19      -104.7240  215.0450 -247.2060 h1        1 7R9      0.090700
     49 H18      -105.0550  216.6900 -245.6410 hn        1 7R9      0.394300
     50 H231     -109.3800  215.0500 -245.9380 h1        1 7R9      0.092700
     51 H232     -108.9240  213.6010 -246.9500 h1        1 7R9      0.092700
     52 H261     -106.3580  215.7890 -248.4880 h1        1 7R9      0.071200
     53 H262     -106.7440  217.0740 -247.2500 h1        1 7R9      0.071200
     54 H24      -109.5020  214.6260 -248.9810 hx        1 7R9      0.121700
     55 H251     -108.2510  216.4980 -249.6340 hc        1 7R9      0.091700
     56 H252     -108.7850  217.5170 -248.2350 hc        1 7R9      0.091700
     57 H291     -112.3930  216.9530 -248.9850 hx        1 7R9      0.112367
     58 H292     -111.3960  215.8170 -250.0240 hx        1 7R9      0.112367
     59 H293     -110.6810  217.4110 -249.4620 hx        1 7R9      0.112367
     60 H281     -111.8000  214.0190 -248.3740 hx        1 7R9      0.112367
     61 H282     -112.7920  215.2040 -247.3870 hx        1 7R9      0.112367
     62 H283     -111.3910  214.3090 -246.6090 hx        1 7R9      0.112367
     63 H10       136.1810 -306.8020  362.6460 ha        1 7R9      0.182000
     64 H14       132.7630 -301.7430  361.2240 h3        1 7R9      0.171700
     65 H11       138.4830 -305.9470  362.2880 ha        1 7R9      0.190000
     66 H12       138.8690 -303.7390  361.2290 ha        1 7R9      0.204000
     67 H21C      135.3220 -302.1670  359.1020 h1        1 7R9      0.054700
     68 H22C      136.9620 -302.3420  358.3160 h1        1 7R9      0.054700
     69 H11C      135.5930 -299.7480  359.3290 hc        1 7R9      0.068700
     70 H12C      136.0110 -300.2280  357.6310 hc        1 7R9      0.068700
     71 H61C      137.6760 -298.5880  358.5770 hc        1 7R9      0.067700
     72 H62C      138.4440 -300.1760  358.1840 hc        1 7R9      0.067700
     73 H51C      139.2590 -299.5250  360.3850 hc        1 7R9      0.097200
     74 H52C      137.5950 -299.0760  360.9540 hc        1 7R9      0.097200
     75 H302     -102.4450  214.4010 -246.2220 hn        1 7R9      0.457800
     76 H271     -110.8320  216.5890 -247.1900 hn        1 7R9      0.452800
     77 H182     -105.2240  215.6680 -244.3660 hn        1 7R9      0.394300
@<TRIPOS>BOND
     1    1    2 1   
     2    1    6 2   
     3    1   43 1   
     4    2    3 2   
     5    2   44 1   
     6    3    4 1   
     7    3    5 1   
     8    5    6 1   
     9    6    7 1   
    10    7    8 2   
    11    7    9 1   
    12    9   10 1   
    13    9   45 1   
    14    9   75 1   
    15   10   11 1   
    16   10   46 1   
    17   10   47 1   
    18   11   12 1   
    19   11   22 1   
    20   11   48 1   
    21   12   13 2   
    22   12   14 1   
    23   14   15 1   
    24   14   16 1   
    25   15   18 1   
    26   15   50 1   
    27   15   51 1   
    28   16   17 1   
    29   16   52 1   
    30   16   53 1   
    31   17   18 1   
    32   17   55 1   
    33   17   56 1   
    34   18   19 1   
    35   18   54 1   
    36   19   20 1   
    37   19   21 1   
    38   19   76 1   
    39   20   57 1   
    40   20   58 1   
    41   20   59 1   
    42   21   60 1   
    43   21   61 1   
    44   21   62 1   
    45   22   49 1   
    46   22   77 1   
    47   23   24 1   
    48   23   25 1   
    49   23   26 1   
    50   26   27 ar  
    51   26   32 ar  
    52   27   28 1   
    53   27   35 ar  
    54   28   29 1   
    55   29   30 1   
    56   29   31 1   
    57   29   64 1   
    58   32   33 ar  
    59   32   63 1   
    60   33   34 ar  
    61   33   65 1   
    62   34   35 ar  
    63   34   66 1   
    64   35   36 1   
    65   36   37 1   
    66   36   41 1   
    67   37   38 1   
    68   37   67 1   
    69   37   68 1   
    70   38   39 1   
    71   38   69 1   
    72   38   70 1   
    73   39   40 1   
    74   39   71 1   
    75   39   72 1   
    76   40   41 1   
    77   40   73 1   
    78   40   74 1   
    79   41   42 2   
@<TRIPOS>SUBSTRUCTURE
     1 7R9         1 TEMP              0 ****  ****    0 ROOT
