@<TRIPOS>MOLECULE
7RA
   35    29     1     0     0
SMALL
bcc


@<TRIPOS>ATOM
      1 C4         -2.5690    0.1370    2.1870 c1        1 7RA      0.006000
      2 C5         -1.2210    0.0130    2.1240 c1        1 7RA     -0.145000
      3 C6         -0.4850   -0.0480    3.2810 c1        1 7RA      0.025000
      4 N1         -1.1060    0.0160    4.4810 n1        1 7RA     -0.233000
      5 C2         -2.4530    0.1400    4.5420 c1        1 7RA      0.058000
      6 N3         -3.1880    0.2010    3.3910 n1        1 7RA     -0.181000
      7 N9         -3.0520    0.1520    0.8990 n1        1 7RA     -0.162000
      8 C8         -2.0010    0.0360    0.0580 c1        1 7RA      0.013000
      9 N7         -0.8660   -0.0500    0.8090 n1        1 7RA     -0.162000
     10 N10        -3.3860    0.3440    5.6230 n3        1 7RA     -0.289000
     11 P           1.6100    0.8020   -5.5040 p3        1 7RA      2.541000
     12 O1P         0.3220    0.8210   -6.2550 o         1 7RA     -1.002500
     13 O2P         2.3450   -0.4910   -5.7920 os        1 7RA     -1.150000
     14 O3P         2.4470    1.9540   -5.9280 o         1 7RA     -1.002500
     15 O5'         1.3160    0.9100   -3.9490 os        1 7RA     -0.758000
     16 C5'         0.9510   -0.2840   -3.2230 c3        1 7RA      0.032000
     17 C4'         0.6650    0.0750   -1.7870 c3        1 7RA     -0.074000
     18 O4'        -0.3960   -0.5420   -1.3780 os        1 7RA     -0.295000
     19 C3'         1.9060   -0.4300   -0.8090 c3        1 7RA      0.165000
     20 O3'         3.0140    0.5940   -0.8110 oh        1 7RA     -0.700000
     21 C2'         1.4300   -0.5320    0.3150 c3        1 7RA     -0.082000
     22 O2'         1.6050    0.7530    1.0700 oh        1 7RA     -0.374000
     23 C1'        -0.1460   -0.8280    0.0740 c2        1 7RA      0.142000
     24 H6          0.2780   -0.5270    3.6180 ha        1 7RA      0.185000
     25 H8         -2.0480   -0.0030   -0.9220 DU        1 7RA      0.228000
     26 H101       -4.2680    0.3750    5.4540 hn        1 7RA      0.170000
     27 H102       -3.0770    0.3880    6.5050 hn        1 7RA      0.170000
     28 H5'1        1.7010   -0.9390   -3.2590 h1        1 7RA      0.075000
     29 H5'2        0.1700   -0.6710   -3.6150 h1        1 7RA      0.075000
     30 H4'         0.5420    1.0660   -1.7000 h1        1 7RA      0.099000
     31 H3'         2.2580   -1.3250   -1.1250 h1        1 7RA     -0.016000
     32 HO'3        3.8090    0.1780   -0.9200 ho        1 7RA      0.234000
     33 H2'         1.8490   -1.2750    0.7990 h1        1 7RA      0.073000
     34 HO'2        2.3900    0.7520    1.4720 ho        1 7RA      0.244000
     35 H1'        -0.3480   -1.7610    0.2730 h4        1 7RA      0.089000
@<TRIPOS>BOND
     1    1    6 1   
     2    2    3 1   
     3    3   24 1   
     4    4    5 1   
     5    5   10 1   
     6    7    8 1   
     7    8    9 1   
     8   10   26 1   
     9   10   27 1   
    10   11   12 1   
    11   11   14 1   
    12   11   15 1   
    13   15   16 1   
    14   16   17 1   
    15   16   28 1   
    16   16   29 1   
    17   17   18 1   
    18   17   19 1   
    19   17   30 1   
    20   18   23 1   
    21   19   20 1   
    22   19   21 1   
    23   19   31 1   
    24   20   32 1   
    25   21   22 1   
    26   21   23 1   
    27   21   33 1   
    28   22   34 1   
    29   23   35 1   
@<TRIPOS>SUBSTRUCTURE
     1 7RA         1 TEMP              0 ****  ****    0 ROOT
