@<TRIPOS>MOLECULE
7RA
   35    37     1     0     0
SMALL
bcc


@<TRIPOS>ATOM
      1 C4          0.2810   -0.9800    3.7940 ca        1 7RA      0.570300
      2 C5         -0.0890    0.2980    3.1510 ca        1 7RA     -0.330800
      3 C6         -0.0340    1.4600    3.9350 ca        1 7RA      0.466200
      4 N1          0.3290    1.4130    5.2200 nb        1 7RA     -0.752000
      5 C2          0.6410    0.1650    5.7620 ca        1 7RA      0.786900
      6 N3          0.6520   -1.0420    5.0990 nb        1 7RA     -0.701000
      7 N9          0.1820   -2.0100    2.8300 nc        1 7RA     -0.687700
      8 C8         -0.2190   -1.3890    1.6970 cd        1 7RA      0.478700
      9 N7         -0.4150   -0.0080    1.8320 na        1 7RA     -0.130300
     10 N10         0.9180    0.1330    7.1640 nh        1 7RA     -0.894500
     11 P          -0.6240   -0.0520   -4.6720 p5        1 7RA      1.332900
     12 O1P        -1.4040    1.2280   -4.5610 o         1 7RA     -0.926500
     13 O2P         0.0230   -0.3900   -5.9760 o         1 7RA     -0.926500
     14 O3P        -1.2620   -1.1790   -3.8810 o         1 7RA     -0.926500
     15 O5'         0.7250    0.2670   -3.6120 os        1 7RA     -0.561200
     16 C5'         0.4860    1.0990   -2.5550 c3        1 7RA      0.225400
     17 C4'         0.1210    0.2860   -1.2850 c3        1 7RA      0.053100
     18 O4'         0.2930    1.1330   -0.1180 os        1 7RA     -0.426600
     19 C3'        -1.3500   -0.1750   -1.3140 c3        1 7RA      0.088100
     20 O3'        -1.4370   -1.5770   -1.1730 oh        1 7RA     -0.701800
     21 C2'        -2.0060    0.4930   -0.0910 c3        1 7RA      0.111100
     22 O2'        -2.9440   -0.2870    0.6030 oh        1 7RA     -0.610800
     23 C1'        -0.7830    0.9400    0.7860 c3        1 7RA      0.212800
     24 H6         -0.2760    2.4570    3.5260 h4        1 7RA      0.023100
     25 H8         -0.3980   -1.8840    0.7190 h5        1 7RA      0.124800
     26 H101        1.3290    0.9830    7.4890 hn        1 7RA      0.381800
     27 H102        1.4570   -0.6650    7.4280 hn        1 7RA      0.381800
     28 H5'1       -0.3500    1.8210   -2.7820 h1        1 7RA      0.010200
     29 H5'2        1.4250    1.6770   -2.3120 h1        1 7RA      0.010200
     30 H4'         0.8110   -0.5890   -1.1670 h1        1 7RA      0.057700
     31 H3'        -1.8180    0.1330   -2.3070 h1        1 7RA      0.174700
     32 HO'3       -1.4130   -1.9270   -2.0960 ho        1 7RA      0.513000
     33 H2'        -2.5480    1.4290   -0.3990 h1        1 7RA      0.079700
     34 HO'2       -2.7870   -1.2160    0.3710 ho        1 7RA      0.429000
     35 H1'        -0.9580    1.9310    1.2910 h2        1 7RA      0.066700
@<TRIPOS>BOND
     1    1    2 ar  
     2    1    6 ar  
     3    1    7 1   
     4    2    3 ar  
     5    2    9 1   
     6    3    4 ar  
     7    3   24 1   
     8    4    5 ar  
     9    5    6 ar  
    10    5   10 1   
    11    7    8 2   
    12    8    9 1   
    13    8   25 1   
    14    9   23 1   
    15   10   26 1   
    16   10   27 1   
    17   11   12 1   
    18   11   13 1   
    19   11   14 1   
    20   11   15 1   
    21   15   16 1   
    22   16   17 1   
    23   16   28 1   
    24   16   29 1   
    25   17   18 1   
    26   17   19 1   
    27   17   30 1   
    28   18   23 1   
    29   19   20 1   
    30   19   21 1   
    31   19   31 1   
    32   20   32 1   
    33   21   22 1   
    34   21   23 1   
    35   21   33 1   
    36   22   34 1   
    37   23   35 1   
@<TRIPOS>SUBSTRUCTURE
     1 7RA         1 TEMP              0 ****  ****    0 ROOT
