@<TRIPOS>MOLECULE
7RA
   35    37     1     0     0
SMALL
bcc


@<TRIPOS>ATOM
      1 C4          0.1370    0.6070    0.0270 ca        1 7RA      0.570300
      2 C5          1.5730    0.2700    0.1240 ca        1 7RA     -0.330800
      3 C6          2.0650   -0.1260    1.3750 ca        1 7RA      0.466200
      4 N1          1.2680   -0.1870    2.4460 nb        1 7RA     -0.752000
      5 C2         -0.0710    0.1710    2.2810 ca        1 7RA      0.786900
      6 N3         -0.6840    0.5510    1.1080 nb        1 7RA     -0.701000
      7 N9         -0.1520    0.9540   -1.3140 nc        1 7RA     -0.687700
      8 C8          1.0270    0.8310   -1.9660 cd        1 7RA      0.478700
      9 N7          2.1010    0.4420   -1.1540 na        1 7RA     -0.130300
     10 N10        -0.8710    0.2030    3.4650 nv        1 7RA     -0.894500
     11 P           5.1680   -0.5770   -6.8030 p5        1 7RA      1.332900
     12 O1P         6.4460   -0.4110   -6.0290 o         1 7RA     -0.926500
     13 O2P         5.2150   -1.2510   -8.1360 o         1 7RA     -0.926500
     14 O3P         4.2450    0.6170   -6.6410 o         1 7RA     -0.926500
     15 O5'         4.2960   -1.7070   -5.7990 os        1 7RA     -0.561200
     16 C5'         4.5480   -1.6510   -4.4580 c3        1 7RA      0.225400
     17 C4'         3.5150   -0.7440   -3.7400 c3        1 7RA      0.053100
     18 O4'         3.5380   -1.0370   -2.3180 os        1 7RA     -0.426600
     19 C3'         3.8590    0.7490   -3.9130 c3        1 7RA      0.088100
     20 O3'         2.7720    1.4500   -4.4810 oh        1 7RA     -0.701800
     21 C2'         4.1030    1.2750   -2.4860 c3        1 7RA      0.111100
     22 O2'         3.6260    2.5680   -2.2200 oh        1 7RA     -0.610800
     23 C1'         3.4710    0.1680   -1.5720 c3        1 7RA      0.212800
     24 H6          3.1200   -0.4130    1.5290 h4        1 7RA      0.023100
     25 H8          1.1870    1.0170   -3.0500 h5        1 7RA      0.124800
     26 H101       -1.8470    0.1150    3.2700 hn        1 7RA      0.381800
     27 H102       -0.5680   -0.4620    4.1460 hn        1 7RA      0.381800
     28 H5'1        4.4390   -2.6830   -4.0110 h1        1 7RA      0.010200
     29 H5'2        5.5850   -1.2620   -4.2510 h1        1 7RA      0.010200
     30 H4'         2.4790   -0.9600   -4.1090 h1        1 7RA      0.057700
     31 H3'         4.7670    0.8450   -4.5960 h1        1 7RA      0.174700
     32 HO'3        2.9240    1.4040   -5.4570 ho        1 7RA      0.513000
     33 H2'         5.2040    1.2990   -2.2600 h1        1 7RA      0.079700
     34 HO'2        2.9580    2.7810   -2.8900 ho        1 7RA      0.429000
     35 H1'         4.0690   -0.0050   -0.6320 h2        1 7RA      0.066700
@<TRIPOS>BOND
     1    1    2 ar  
     2    1    6 ar  
     3    1    7 1   
     4    2    3 ar  
     5    2    9 1   
     6    3    4 ar  
     7    3   24 1   
     8    4    5 ar  
     9    5    6 ar  
    10    5   10 1   
    11    7    8 2   
    12    8    9 1   
    13    8   25 1   
    14    9   23 1   
    15   10   26 1   
    16   10   27 1   
    17   11   12 1   
    18   11   13 1   
    19   11   14 1   
    20   11   15 1   
    21   15   16 1   
    22   16   17 1   
    23   16   28 1   
    24   16   29 1   
    25   17   18 1   
    26   17   19 1   
    27   17   30 1   
    28   18   23 1   
    29   19   20 1   
    30   19   21 1   
    31   19   31 1   
    32   20   32 1   
    33   21   22 1   
    34   21   23 1   
    35   21   33 1   
    36   22   34 1   
    37   23   35 1   
@<TRIPOS>SUBSTRUCTURE
     1 7RA         1 TEMP              0 ****  ****    0 ROOT
