@<TRIPOS>MOLECULE
7RA
   35    37     1     0     0
SMALL
bcc


@<TRIPOS>ATOM
      1 C4          0.0670    0.3410   -0.0220 ca        1 7RA      0.570300
      2 C5          1.5320    0.2050    0.1050 ca        1 7RA     -0.330800
      3 C6          2.0640    0.0650    1.3950 ca        1 7RA      0.465200
      4 N1          1.2740    0.0500    2.4720 nb        1 7RA     -0.752000
      5 C2         -0.1030    0.1660    2.2710 ca        1 7RA      0.786900
      6 N3         -0.7480    0.3320    1.0650 nb        1 7RA     -0.701000
      7 N9         -0.2530    0.4880   -1.3920 nc        1 7RA     -0.688700
      8 C8          0.9380    0.4430   -2.0330 cd        1 7RA      0.478700
      9 N7          2.0450    0.2860   -1.1880 na        1 7RA     -0.131300
     10 N10        -0.9280    0.0380    3.4300 nh        1 7RA     -0.894500
     11 P           5.3010   -0.5180   -6.7590 p5        1 7RA      1.331900
     12 O1P         6.5270   -0.1310   -5.9790 o         1 7RA     -0.926833
     13 O2P         5.4700   -1.2310   -8.0610 o         1 7RA     -0.926833
     14 O3P         4.2080    0.5300   -6.6570 o         1 7RA     -0.926833
     15 O5'         4.5900   -1.7230   -5.7160 os        1 7RA     -0.561200
     16 C5'         4.8110   -1.5780   -4.3760 c3        1 7RA      0.225400
     17 C4'         3.6480   -0.8000   -3.7070 c3        1 7RA      0.053100
     18 O4'         3.6860   -1.0300   -2.2730 os        1 7RA     -0.424600
     19 C3'         3.7810    0.7190   -3.9380 c3        1 7RA      0.087100
     20 O3'         2.6110    1.2360   -4.5380 oh        1 7RA     -0.700800
     21 C2'         3.9350    1.3290   -2.5330 c3        1 7RA      0.110100
     22 O2'         3.2830    2.5550   -2.3230 oh        1 7RA     -0.610800
     23 C1'         3.4470    0.1830   -1.5790 c3        1 7RA      0.212800
     24 H6          3.1480   -0.0350    1.5770 h4        1 7RA      0.023100
     25 H8          1.0850    0.5290   -3.1310 h5        1 7RA      0.125800
     26 H101       -1.8260    0.4580    3.3100 hn        1 7RA      0.381800
     27 H102       -0.4740    0.3610    4.2580 hn        1 7RA      0.381800
     28 H5'1        4.8430   -2.5960   -3.8880 h1        1 7RA      0.010700
     29 H5'2        5.7780   -1.0360   -4.1760 h1        1 7RA      0.010700
     30 H4'         2.6590   -1.1750   -4.0780 h1        1 7RA      0.057700
     31 H3'         4.6730    0.9160   -4.6210 h1        1 7RA      0.175700
     32 HO'3        2.7780    1.1750   -5.5100 ho        1 7RA      0.512000
     33 H2'         5.0200    1.5110   -2.3010 h1        1 7RA      0.080700
     34 HO'2        2.5920    2.6410   -2.9980 ho        1 7RA      0.429000
     35 H1'         4.0480    0.1310   -0.6270 h2        1 7RA      0.066700
@<TRIPOS>BOND
     1    1    2 ar  
     2    1    6 ar  
     3    1    7 1   
     4    2    3 ar  
     5    2    9 1   
     6    3    4 ar  
     7    3   24 1   
     8    4    5 ar  
     9    5    6 ar  
    10    5   10 1   
    11    7    8 2   
    12    8    9 1   
    13    8   25 1   
    14    9   23 1   
    15   10   26 1   
    16   10   27 1   
    17   11   12 1   
    18   11   13 1   
    19   11   14 1   
    20   11   15 1   
    21   15   16 1   
    22   16   17 1   
    23   16   28 1   
    24   16   29 1   
    25   17   18 1   
    26   17   19 1   
    27   17   30 1   
    28   18   23 1   
    29   19   20 1   
    30   19   21 1   
    31   19   31 1   
    32   20   32 1   
    33   21   22 1   
    34   21   23 1   
    35   21   33 1   
    36   22   34 1   
    37   23   35 1   
@<TRIPOS>SUBSTRUCTURE
     1 7RA         1 TEMP              0 ****  ****    0 ROOT
