@<TRIPOS>MOLECULE
7RD
   39    39     1     0     0
SMALL
bcc


@<TRIPOS>ATOM
      1 N2          6.8590   -1.2260    2.0890 n1        1 7RD     -0.061000
      2 N1          6.3810   -0.7550    1.1730 n1        1 7RD      0.215000
      3 N           6.0740   -0.1340    0.1280 n2        1 7RD     -0.441200
      4 C12         4.7370   -0.1820   -0.4280 c3        1 7RD      0.158800
      5 C11         3.5940    0.2570    0.4830 c3        1 7RD     -0.104400
      6 C10         2.2940    0.2840   -0.2930 c3        1 7RD     -0.078400
      7 C9          1.1440    0.7220    0.5960 c3        1 7RD     -0.019200
      8 C8         -0.1470    0.7330   -0.1250 ce        1 7RD     -0.333400
      9 C7         -0.7650    2.0140   -0.5030 c         1 7RD      0.613900
     10 O          -0.3020    3.1310   -0.2770 o         1 7RD     -0.498100
     11 S          -2.2760    1.6850   -1.3200 ss        1 7RD     -0.268700
     12 C13        -0.8690   -0.3640   -0.4790 c2        1 7RD      0.147900
     13 O1         -0.5390   -1.6650   -0.2660 oh        1 7RD     -0.460100
     14 C5         -2.1510   -0.1390   -1.2380 c3        1 7RD      0.131500
     15 C6         -1.9930   -0.6510   -2.6600 c3        1 7RD     -0.080100
     16 C4         -3.3700   -0.7060   -0.6170 c2        1 7RD     -0.169200
     17 C2         -3.7930   -0.6250    0.6600 ce        1 7RD     -0.031200
     18 C3         -3.0880    0.1010    1.7430 c3        1 7RD     -0.072900
     19 C1         -5.0420   -1.2900    1.0280 ce        1 7RD     -0.141000
     20 C          -5.4700   -1.4720    2.2780 c2        1 7RD     -0.197000
     21 H121        4.8150    0.5310   -1.3000 h1        1 7RD      0.063200
     22 H122        4.4990   -1.2060   -0.8400 h1        1 7RD      0.063200
     23 H111        3.4990   -0.4470    1.3510 hc        1 7RD      0.050200
     24 H112        3.8030    1.2770    0.8990 hc        1 7RD      0.050200
     25 H101        2.3860    0.9910   -1.1590 hc        1 7RD      0.045200
     26 H102        2.0820   -0.7330   -0.7160 hc        1 7RD      0.045200
     27 H91C        1.0750    0.0370    1.4850 hc        1 7RD      0.060200
     28 H92C        1.3530    1.7560    0.9880 hc        1 7RD      0.060200
     29 H1          0.2930   -1.6890    0.2370 ho        1 7RD      0.434000
     30 H61C       -1.0960   -0.1940   -3.1440 hc        1 7RD      0.058033
     31 H62C       -1.8680   -1.7620   -2.6460 hc        1 7RD      0.058033
     32 H63C       -2.8960   -0.3930   -3.2640 hc        1 7RD      0.058033
     33 H4         -3.9980   -1.2650   -1.3400 ha        1 7RD      0.135000
     34 H31C       -3.8060    0.7550    2.2990 hc        1 7RD      0.051367
     35 H32C       -2.6430   -0.6280    2.4660 hc        1 7RD      0.051367
     36 H33C       -2.2700    0.7480    1.3400 hc        1 7RD      0.051367
     37 HA         -5.6450   -1.6620    0.1790 ha        1 7RD      0.124000
     38 HC1        -4.9150   -1.1290    3.1620 ha        1 7RD      0.116500
     39 HC2        -6.4170   -1.9840    2.4960 ha        1 7RD      0.116500
@<TRIPOS>BOND
     1    1    2 3   
     2    2    3 1   
     3    3    4 1   
     4    4    5 1   
     5    4   21 1   
     6    4   22 1   
     7    5    6 1   
     8    5   23 1   
     9    5   24 1   
    10    6    7 1   
    11    6   25 1   
    12    6   26 1   
    13    7    8 1   
    14    7   27 1   
    15    7   28 1   
    16    8    9 1   
    17    8   12 2   
    18    9   10 2   
    19    9   11 1   
    20   11   14 1   
    21   12   13 1   
    22   12   14 1   
    23   13   29 1   
    24   14   15 1   
    25   14   16 1   
    26   15   30 1   
    27   15   31 1   
    28   15   32 1   
    29   16   17 2   
    30   16   33 1   
    31   17   18 1   
    32   17   19 1   
    33   18   34 1   
    34   18   35 1   
    35   18   36 1   
    36   19   20 2   
    37   19   37 1   
    38   20   38 1   
    39   20   39 1   
@<TRIPOS>SUBSTRUCTURE
     1 7RD         1 TEMP              0 ****  ****    0 ROOT
