@<TRIPOS>MOLECULE
7RD
   39    35     1     0     0
SMALL
bcc


@<TRIPOS>ATOM
      1 N2         -4.6120    7.6040   -3.1180 n1        1 7RD     -0.176500
      2 N1         -4.1080    6.4110   -2.3330 n2        1 7RD      0.216000
      3 N          -3.6270    5.2690   -1.5830 n1        1 7RD     -0.176500
      4 C12        -2.3520    4.7690   -1.9790 c2        1 7RD     -0.078000
      5 C11        -2.3720    3.3160   -1.9900 c3        1 7RD     -0.180000
      6 C10        -1.3810    2.9250   -1.2010 c3        1 7RD     -0.156000
      7 C9         -0.7140    1.1640   -1.5690 c3        1 7RD     -0.091000
      8 C8         -0.8820    0.7220   -0.4160 c2        1 7RD     -0.231000
      9 C7         -1.9990   -0.4860   -0.0900 c2        1 7RD      0.172000
     10 O          -2.5310   -0.5600    0.9250 o         1 7RD     -0.252000
     11 S          -0.4380   -2.2450    0.4700 ss        1 7RD      0.091000
     12 C13         0.7940    0.0410    0.0040 c1        1 7RD      0.074000
     13 O1          1.8630    0.7220   -0.2900 o         1 7RD     -0.221000
     14 C5          0.9530   -1.7990    0.1140 c3        1 7RD     -0.105000
     15 C6          1.4010   -2.4970   -0.7980 c3        1 7RD     -0.201000
     16 C4          2.1170   -2.0460    1.0690 c2        1 7RD     -0.189000
     17 C2          2.2220   -3.2250    1.7430 c1        1 7RD     -0.024000
     18 C3          3.4680   -3.4100    2.4060 c2        1 7RD     -0.190000
     19 C1          0.9320   -3.6400    2.6930 c2        1 7RD     -0.152000
     20 C           1.0140   -4.4400    3.5460 c1        1 7RD     -0.191000
     21 H121       -1.6630    5.0840   -1.3700 ha        1 7RD      0.103500
     22 H122       -2.1060    5.1790   -3.1000 ha        1 7RD      0.103500
     23 H111       -3.4220    2.9320   -1.5560 hc        1 7RD      0.087000
     24 H112       -2.2670    2.9800   -2.8540 hc        1 7RD      0.087000
     25 H101       -1.8400    2.8960    0.0520 hc        1 7RD      0.092000
     26 H102       -0.8350    3.4040   -1.2250 hc        1 7RD      0.092000
     27 H91C       -1.3090    0.6730   -2.3140 hc        1 7RD      0.098500
     28 H92C        0.1220    1.1960   -1.7800 hc        1 7RD      0.098500
     29 H1          2.7090    0.0260   -0.3700 ho        1 7RD      0.231000
     30 H61C        0.6870   -3.1070   -1.1380 hc        1 7RD      0.096667
     31 H62C        1.7140   -2.0280   -1.4240 hc        1 7RD      0.096667
     32 H63C        2.4280   -3.3170   -0.2260 hc        1 7RD      0.096667
     33 H4          2.4960   -1.0060    1.6660 ha        1 7RD      0.134000
     34 H31C        4.0380   -2.5670    2.2840 ha        1 7RD      0.090000
     35 H32C        4.0470   -4.3540    1.8790 ha        1 7RD      0.090000
     36 H33C        3.3650   -3.5320    3.1300 ha        1 7RD      0.090000
     37 HA         -0.0620   -3.1100    2.5450 ha        1 7RD      0.142000
     38 HC1         2.3670   -5.1520    3.7820 DU        1 7RD      0.114000
     39 HC2        -0.2120   -4.7920    4.4160 ha        1 7RD      0.120000
@<TRIPOS>BOND
     1    1    2 1   
     2    2    3 1   
     3    4    5 1   
     4    4   21 1   
     5    4   22 1   
     6    5    6 1   
     7    5   23 1   
     8    5   24 1   
     9    6    7 1   
    10    6   25 1   
    11    6   26 1   
    12    7    8 1   
    13    7   27 1   
    14    7   28 1   
    15    8    9 1   
    16    8   12 1   
    17    9   10 1   
    18    9   11 1   
    19   11   14 1   
    20   12   14 1   
    21   13   29 1   
    22   14   15 1   
    23   14   16 1   
    24   15   30 1   
    25   15   31 1   
    26   15   32 1   
    27   16   17 1   
    28   16   33 1   
    29   17   19 1   
    30   18   34 1   
    31   18   35 1   
    32   18   36 1   
    33   19   20 1   
    34   19   37 1   
    35   20   39 1   
@<TRIPOS>SUBSTRUCTURE
     1 7RD         1 TEMP              0 ****  ****    0 ROOT
