@<TRIPOS>MOLECULE
7RD
   39    24     1     0     0
SMALL
bcc


@<TRIPOS>ATOM
      1 N2          0.0000    0.0000    0.0000 n1        1 7RD     -0.412000
      2 N1          1.1240    0.0000    0.0000 n2        1 7RD      0.755000
      3 N           2.2480    0.0000    0.0200 n2        1 7RD     -0.291000
      4 C12         2.9920   -1.0690   -0.6500 c2        1 7RD     -0.155000
      5 C11         3.7580   -0.1590   -3.1630 c1        1 7RD      0.116750
      6 C10         5.0080    3.3320   -3.4420 c1        1 7RD      0.116750
      7 C9          2.2200    6.3400   -3.0160 c1        1 7RD      0.116750
      8 C8         -0.5920    5.6580   -0.3820 DU        1 7RD      0.184500
      9 C7         -0.8840    7.0450    0.9440 DU        1 7RD      0.184500
     10 O          -2.2580    6.9160    2.8240 os        1 7RD     -0.458000
     11 S          -2.0110    8.4800   -0.2240 s         1 7RD     -0.056000
     12 C13        -2.5430    5.6060   -1.2130 DU        1 7RD      0.184500
     13 O1         -4.3940    3.9260   -0.6250 o         1 7RD     -0.601000
     14 C5         -3.2950    7.5510   -1.4530 c1        1 7RD     -0.176000
     15 C6         -3.6130    8.4950   -4.3570 c2        1 7RD     -0.151000
     16 C4         -4.0660    7.6010   -0.8820 c1        1 7RD     -0.205000
     17 C2         -3.3680    8.4100    1.5360 DU        1 7RD      0.184500
     18 C3         -5.2420    8.8280    2.8880 c2        1 7RD     -0.151000
     19 C1          0.2680    7.4070    2.6850 c1        1 7RD      0.598000
     20 C           0.5900    6.5670    5.1600 c1        1 7RD      0.116750
     21 H121        2.9830   -2.1380   -0.8290 h4        1 7RD      0.084000
     22 H122        3.9630   -1.0000   -0.1740 h4        1 7RD      0.084000
     23 H111        2.8080   -0.2830   -3.6690 ha        1 7RD     -0.052875
     24 H112        4.6160   -0.8010   -3.3200 ha        1 7RD     -0.052875
     25 H101        5.9090    3.2450   -2.8460 ha        1 7RD     -0.052875
     26 H102        5.3080    3.3780   -4.4810 ha        1 7RD     -0.052875
     27 H91C        2.8240    7.1100   -2.5510 ha        1 7RD     -0.052875
     28 H92C        1.6220    6.3740   -3.9180 ha        1 7RD     -0.052875
     29 H1         -5.2790    4.2280   -0.7540 ho        1 7RD      0.135000
     30 H61C       -3.8970    9.5250   -4.1800 ha        1 7RD      0.028500
     31 H62C       -2.6920    8.4680   -4.9270 ha        1 7RD      0.028500
     32 H63C       -4.5810    8.1630   -4.7100 ha        1 7RD      0.028500
     33 H4         -5.0700    7.2150   -1.0090 ha        1 7RD      0.198000
     34 H31C       -6.1000    9.2120    2.3500 ha        1 7RD      0.028500
     35 H32C       -4.9010    9.6860    3.4550 ha        1 7RD      0.028500
     36 H33C       -5.6560    8.2070    3.6730 ha        1 7RD      0.028500
     37 HA          1.1550    7.1620    2.1130 ha        1 7RD     -0.153000
     38 HC1         0.0040    6.3350    6.0410 ha        1 7RD     -0.052875
     39 HC2         1.5910    6.4180    5.5460 ha        1 7RD     -0.052875
@<TRIPOS>BOND
     1    1    2 1   
     2    2    3 1   
     3    3    4 1   
     4    4   21 1   
     5    4   22 1   
     6    5   23 1   
     7    5   24 1   
     8    6   25 1   
     9    6   26 1   
    10    7   27 1   
    11    7   28 1   
    12   11   14 1   
    13   13   29 1   
    14   14   16 1   
    15   15   30 1   
    16   15   31 1   
    17   15   32 1   
    18   16   33 1   
    19   18   34 1   
    20   18   35 1   
    21   18   36 1   
    22   19   37 1   
    23   20   38 1   
    24   20   39 1   
@<TRIPOS>SUBSTRUCTURE
     1 7RD         1 TEMP              0 ****  ****    0 ROOT
