@<TRIPOS>MOLECULE
7RG
   54    58     1     0     0
SMALL
bcc


@<TRIPOS>ATOM
      1 N1          3.6000   -0.1280    0.2470 na        1 7RG      0.109400
      2 N2          4.8130    0.4280    0.4580 nc        1 7RG     -0.506800
      3 C3          4.6810    1.7760    0.4200 cd        1 7RG      0.379200
      4 C4          3.3080    2.1220    0.1740 cd        1 7RG     -0.373900
      5 C5          2.5630    3.3460    0.0310 c         1 7RG      0.749100
      6 O6          2.9880    4.5120    0.0930 o         1 7RG     -0.620500
      7 N7          1.1760    3.1490   -0.2090 n         1 7RG     -0.495400
      8 C8          0.5980    1.8810   -0.3000 cd        1 7RG      0.519900
      9 N9          1.2600    0.7300   -0.1740 nc        1 7RG     -0.619100
     10 C10         2.6230    0.8610    0.0660 cc        1 7RG      0.173100
     11 C11        -0.9020    1.8410   -0.5610 c3        1 7RG     -0.129000
     12 C12        -1.6670    1.1290    0.5830 c3        1 7RG      0.170800
     13 N13        -2.7090    0.2830    0.0030 n3        1 7RG     -0.713600
     14 C14        -2.3790    0.0800   -1.4080 c3        1 7RG      0.158800
     15 C15        -1.2680    1.0680   -1.8390 c3        1 7RG     -0.081700
     16 C16        -4.0630    0.7430    0.2530 c3        1 7RG      0.131500
     17 C17        -5.0330   -0.4450    0.3250 ca        1 7RG      0.648300
     18 N18        -5.4960   -0.7990    1.5650 nb        1 7RG     -0.692000
     19 C19        -6.3430   -1.8450    1.6120 ca        1 7RG      0.429700
     20 C20        -6.7400   -2.5530    0.4620 ca        1 7RG     -0.366600
     21 C21        -6.2100   -2.1060   -0.7630 ca        1 7RG      0.429700
     22 N22        -5.3630   -1.0630   -0.8510 nb        1 7RG     -0.692000
     23 C23         3.3570   -1.5710    0.2330 c3        1 7RG      0.075000
     24 C24         3.6770   -2.2390    1.5790 c3        1 7RG     -0.125900
     25 C25         3.3580   -3.7210    1.4890 c3        1 7RG      0.125400
     26 O26         4.0680   -4.3590    0.4330 os        1 7RG     -0.411600
     27 C27         3.8110   -3.7730   -0.8370 c3        1 7RG      0.125400
     28 C28         4.1530   -2.2930   -0.8650 c3        1 7RG     -0.125900
     29 C29        -1.7390    1.9900   -2.9380 c3        1 7RG     -0.095100
     30 H3          5.5260    2.4520    0.5630 h4        1 7RG      0.059100
     31 HN7         0.6050    3.9570   -0.3200 hn        1 7RG      0.335500
     32 H11        -1.2950    2.8930   -0.6470 hc        1 7RG      0.062700
     33 H12        -0.9860    0.4420    1.1570 h1        1 7RG      0.065200
     34 H12A       -2.0760    1.8900    1.3000 h1        1 7RG      0.065200
     35 H14        -1.9980   -0.9740   -1.5010 h1        1 7RG      0.065700
     36 H14A       -3.2790    0.1840   -2.0730 h1        1 7RG      0.065700
     37 H15        -0.3910    0.4790   -2.2160 hc        1 7RG      0.079700
     38 H16        -4.1000    1.2900    1.2390 h1        1 7RG      0.058200
     39 H16A       -4.4450    1.4460   -0.5440 h1        1 7RG      0.058200
     40 H19        -6.7120   -2.1250    2.6150 h4        1 7RG      0.028600
     41 H20        -7.4250   -3.4050    0.5170 ha        1 7RG      0.155000
     42 H21        -6.4710   -2.6010   -1.7170 h4        1 7RG      0.028600
     43 H23         2.2530   -1.7030    0.0200 h1        1 7RG      0.086700
     44 H24         4.7610   -2.1010    1.8260 hc        1 7RG      0.069700
     45 H24A        3.0700   -1.7790    2.3990 hc        1 7RG      0.069700
     46 H25         3.7030   -4.2590    2.4120 h1        1 7RG      0.052200
     47 H25A        2.2550   -3.8800    1.3470 h1        1 7RG      0.052200
     48 H27         4.4730   -4.3480   -1.5400 h1        1 7RG      0.052200
     49 H27A        2.7350   -3.9340   -1.1130 h1        1 7RG      0.052200
     50 H28         3.9030   -1.8740   -1.8720 hc        1 7RG      0.069700
     51 H28A        5.2530   -2.1580   -0.6920 hc        1 7RG      0.069700
     52 H29        -2.6410    2.5660   -2.6190 hc        1 7RG      0.040033
     53 H29A       -0.9340    2.7140   -3.2130 hc        1 7RG      0.040033
     54 H29B       -2.0050    1.3960   -3.8460 hc        1 7RG      0.040033
@<TRIPOS>BOND
     1    1    2 1   
     2    1   10 1   
     3    1   23 1   
     4    2    3 2   
     5    3    4 1   
     6    3   30 1   
     7    4    5 1   
     8    4   10 2   
     9    5    6 2   
    10    5    7 1   
    11    7    8 1   
    12    7   31 1   
    13    8    9 2   
    14    8   11 1   
    15    9   10 1   
    16   11   12 1   
    17   11   15 1   
    18   11   32 1   
    19   12   13 1   
    20   12   33 1   
    21   12   34 1   
    22   13   14 1   
    23   13   16 1   
    24   14   15 1   
    25   14   35 1   
    26   14   36 1   
    27   15   29 1   
    28   15   37 1   
    29   16   17 1   
    30   16   38 1   
    31   16   39 1   
    32   17   18 ar  
    33   17   22 ar  
    34   18   19 ar  
    35   19   20 ar  
    36   19   40 1   
    37   20   21 ar  
    38   20   41 1   
    39   21   22 ar  
    40   21   42 1   
    41   23   24 1   
    42   23   28 1   
    43   23   43 1   
    44   24   25 1   
    45   24   44 1   
    46   24   45 1   
    47   25   26 1   
    48   25   46 1   
    49   25   47 1   
    50   26   27 1   
    51   27   28 1   
    52   27   48 1   
    53   27   49 1   
    54   28   50 1   
    55   28   51 1   
    56   29   52 1   
    57   29   53 1   
    58   29   54 1   
@<TRIPOS>SUBSTRUCTURE
     1 7RG         1 TEMP              0 ****  ****    0 ROOT
