@<TRIPOS>MOLECULE
7RG
   54    58     1     0     0
SMALL
bcc


@<TRIPOS>ATOM
      1 N1          0.0450    0.0010   -0.0850 na        1 7RG      0.109400
      2 N2          1.3840    0.1350   -0.2000 nc        1 7RG     -0.506800
      3 C3          1.9110    0.2880    1.0380 cd        1 7RG      0.379200
      4 C4          0.8610    0.2500    2.0190 cd        1 7RG     -0.373900
      5 C5          0.7860    0.3520    3.4530 c         1 7RG      0.749100
      6 O6          1.7180    0.5160    4.2580 o         1 7RG     -0.620500
      7 N7         -0.5350    0.2460    3.9680 n         1 7RG     -0.495400
      8 C8         -1.6520    0.0640    3.1500 cd        1 7RG      0.519900
      9 N9         -1.6160   -0.0320    1.8200 nc        1 7RG     -0.619100
     10 C10        -0.3470    0.0610    1.2600 cc        1 7RG      0.173100
     11 C11        -2.9970   -0.0300    3.8580 c3        1 7RG     -0.129000
     12 C12        -3.6930   -1.3880    3.5930 c3        1 7RG      0.170800
     13 N13        -5.1210   -1.1570    3.3780 n3        1 7RG     -0.713600
     14 C14        -5.2980    0.2620    3.0650 c3        1 7RG      0.158800
     15 C15        -3.9980    1.0400    3.3880 c3        1 7RG     -0.081700
     16 C16        -5.9760   -1.6580    4.4400 c3        1 7RG      0.131500
     17 C17        -7.3420   -2.0780    3.8810 ca        1 7RG      0.648300
     18 N18        -7.5890   -3.4210    3.7780 nb        1 7RG     -0.692000
     19 C19        -8.7900   -3.7740    3.2820 ca        1 7RG      0.429700
     20 C20        -9.7540   -2.8290    2.8820 ca        1 7RG     -0.366600
     21 C21        -9.4030   -1.4740    3.0330 ca        1 7RG      0.429700
     22 N22        -8.2130   -1.0820    3.5260 nb        1 7RG     -0.692000
     23 C23        -0.8550   -0.1970   -1.2210 c3        1 7RG      0.075000
     24 C24        -0.5670   -1.4980   -1.9840 c3        1 7RG     -0.125900
     25 C25        -1.5690   -1.6450   -3.1170 c3        1 7RG      0.125400
     26 O26        -1.5440   -0.5310   -4.0020 os        1 7RG     -0.411600
     27 C27        -1.8000    0.7030   -3.3420 c3        1 7RG      0.125400
     28 C28        -0.8100    0.9690   -2.2210 c3        1 7RG     -0.125900
     29 C29        -4.2290    2.0950    4.4420 c3        1 7RG     -0.095100
     30 H3          2.9810    0.4170    1.2090 h4        1 7RG      0.059100
     31 HN7        -0.6540    0.3110    4.9550 hn        1 7RG      0.335500
     32 H11        -2.8450    0.0780    4.9680 hc        1 7RG      0.062700
     33 H12        -3.4910   -2.0930    4.4440 h1        1 7RG      0.065200
     34 H12A       -3.3060   -1.8630    2.6500 h1        1 7RG      0.065200
     35 H14        -6.1710    0.7110    3.6110 h1        1 7RG      0.065700
     36 H14A       -5.5060    0.3240    1.9620 h1        1 7RG      0.065700
     37 H15        -3.6380    1.5400    2.4500 hc        1 7RG      0.079700
     38 H16        -5.4960   -2.5610    4.9170 h1        1 7RG      0.058200
     39 H16A       -6.1600   -0.8980    5.2550 h1        1 7RG      0.058200
     40 H19        -8.9820   -4.8590    3.2020 h4        1 7RG      0.028600
     41 H20       -10.7240   -3.1310    2.4760 ha        1 7RG      0.155000
     42 H21       -10.1000   -0.6650    2.7480 h4        1 7RG      0.028600
     43 H23        -1.9000   -0.2580   -0.7890 h1        1 7RG      0.086700
     44 H24         0.4730   -1.4740   -2.4030 hc        1 7RG      0.069700
     45 H24A       -0.6490   -2.3810   -1.3010 hc        1 7RG      0.069700
     46 H25        -1.3030   -2.5180   -3.7720 h1        1 7RG      0.052200
     47 H25A       -2.6070   -1.7780   -2.7100 h1        1 7RG      0.052200
     48 H27        -1.6980    1.4710   -4.1540 h1        1 7RG      0.052200
     49 H27A       -2.8520    0.7060   -2.9480 h1        1 7RG      0.052200
     50 H28        -1.0730    1.9320   -1.7150 hc        1 7RG      0.069700
     51 H28A        0.2220    1.0680   -2.6470 hc        1 7RG      0.069700
     52 H29        -3.2750    2.6230    4.6820 hc        1 7RG      0.040033
     53 H29A       -4.6300    1.6430    5.3810 hc        1 7RG      0.040033
     54 H29B       -4.9660    2.8480    4.0730 hc        1 7RG      0.040033
@<TRIPOS>BOND
     1    1    2 1   
     2    1   10 1   
     3    1   23 1   
     4    2    3 2   
     5    3    4 1   
     6    3   30 1   
     7    4    5 1   
     8    4   10 2   
     9    5    6 2   
    10    5    7 1   
    11    7    8 1   
    12    7   31 1   
    13    8    9 2   
    14    8   11 1   
    15    9   10 1   
    16   11   12 1   
    17   11   15 1   
    18   11   32 1   
    19   12   13 1   
    20   12   33 1   
    21   12   34 1   
    22   13   14 1   
    23   13   16 1   
    24   14   15 1   
    25   14   35 1   
    26   14   36 1   
    27   15   29 1   
    28   15   37 1   
    29   16   17 1   
    30   16   38 1   
    31   16   39 1   
    32   17   18 ar  
    33   17   22 ar  
    34   18   19 ar  
    35   19   20 ar  
    36   19   40 1   
    37   20   21 ar  
    38   20   41 1   
    39   21   22 ar  
    40   21   42 1   
    41   23   24 1   
    42   23   28 1   
    43   23   43 1   
    44   24   25 1   
    45   24   44 1   
    46   24   45 1   
    47   25   26 1   
    48   25   46 1   
    49   25   47 1   
    50   26   27 1   
    51   27   28 1   
    52   27   48 1   
    53   27   49 1   
    54   28   50 1   
    55   28   51 1   
    56   29   52 1   
    57   29   53 1   
    58   29   54 1   
@<TRIPOS>SUBSTRUCTURE
     1 7RG         1 TEMP              0 ****  ****    0 ROOT
