@<TRIPOS>MOLECULE
7RG
   54    58     1     0     0
SMALL
bcc


@<TRIPOS>ATOM
      1 N1          0.0420   -0.0210   -0.0880 na        1 7RG      0.109400
      2 N2          1.3820    0.0980   -0.2050 nc        1 7RG     -0.506800
      3 C3          1.9120    0.2390    1.0330 cd        1 7RG      0.379200
      4 C4          0.8640    0.2080    2.0160 cd        1 7RG     -0.373900
      5 C5          0.7930    0.3030    3.4500 c         1 7RG      0.749100
      6 O6          1.7280    0.4530    4.2550 o         1 7RG     -0.620500
      7 N7         -0.5290    0.2100    3.9670 n         1 7RG     -0.495400
      8 C8         -1.6490    0.0440    3.1500 cd        1 7RG      0.519900
      9 N9         -1.6170   -0.0450    1.8190 nc        1 7RG     -0.619100
     10 C10        -0.3470    0.0360    1.2570 cc        1 7RG      0.173100
     11 C11        -2.9940   -0.0390    3.8590 c3        1 7RG     -0.129000
     12 C12        -3.7000   -1.3930    3.5950 c3        1 7RG      0.170800
     13 N13        -5.1270   -1.1510    3.3810 n3        1 7RG     -0.713600
     14 C14        -5.2930    0.2690    3.0670 c3        1 7RG      0.158800
     15 C15        -3.9880    1.0380    3.3910 c3        1 7RG     -0.081700
     16 C16        -5.9840   -1.6450    4.4440 c3        1 7RG      0.131500
     17 C17        -7.3540   -2.0550    3.8860 ca        1 7RG      0.648300
     18 N18        -7.6110   -3.3970    3.7850 nb        1 7RG     -0.692000
     19 C19        -8.8150   -3.7410    3.2900 ca        1 7RG      0.429700
     20 C20        -9.7710   -2.7890    2.8890 ca        1 7RG     -0.366600
     21 C21        -9.4110   -1.4370    3.0380 ca        1 7RG      0.429700
     22 N22        -8.2170   -1.0530    3.5310 nb        1 7RG     -0.692000
     23 C23        -0.8630   -0.2030   -1.2240 c3        1 7RG      0.075000
     24 C24        -0.5900   -1.5030   -1.9950 c3        1 7RG     -0.125900
     25 C25        -1.5960   -1.6320   -3.1270 c3        1 7RG      0.125400
     26 O26        -1.5600   -0.5130   -4.0050 os        1 7RG     -0.411600
     27 C27        -1.8010    0.7200   -3.3380 c3        1 7RG      0.125400
     28 C28        -0.8060    0.9680   -2.2170 c3        1 7RG     -0.125900
     29 C29        -4.2110    2.0930    4.4470 c3        1 7RG     -0.095100
     30 H3          2.9850    0.3550    1.2030 h4        1 7RG      0.059100
     31 HN7        -0.6460    0.2710    4.9540 hn        1 7RG      0.335500
     32 H11        -2.8390    0.0680    4.9690 hc        1 7RG      0.062700
     33 H12        -3.5030   -2.0980    4.4460 h1        1 7RG      0.065200
     34 H12A       -3.3170   -1.8700    2.6520 h1        1 7RG      0.065200
     35 H14        -5.4990    0.3330    1.9640 h1        1 7RG      0.065700
     36 H14A       -6.1630    0.7250    3.6110 h1        1 7RG      0.065700
     37 H15        -3.6250    1.5380    2.4540 hc        1 7RG      0.079700
     38 H16        -6.1630   -0.8820    5.2580 h1        1 7RG      0.058200
     39 H16A       -5.5110   -2.5500    4.9210 h1        1 7RG      0.058200
     40 H19        -9.0150   -4.8250    3.2120 h4        1 7RG      0.028600
     41 H20       -10.7450   -3.0850    2.4840 ha        1 7RG      0.155000
     42 H21       -10.1010   -0.6230    2.7530 h4        1 7RG      0.028600
     43 H23        -1.9070   -0.2550   -0.7900 h1        1 7RG      0.086700
     44 H24         0.4490   -1.4880   -2.4150 hc        1 7RG      0.069700
     45 H24A       -0.6810   -2.3890   -1.3170 hc        1 7RG      0.069700
     46 H25        -1.3420   -2.5040   -3.7870 h1        1 7RG      0.052200
     47 H25A       -2.6350   -1.7550   -2.7190 h1        1 7RG      0.052200
     48 H27        -1.6910    1.4920   -4.1460 h1        1 7RG      0.052200
     49 H27A       -2.8520    0.7330   -2.9420 h1        1 7RG      0.052200
     50 H28        -1.0570    1.9310   -1.7050 hc        1 7RG      0.069700
     51 H28A        0.2270    1.0570   -2.6440 hc        1 7RG      0.069700
     52 H29        -3.2540    2.6150    4.6870 hc        1 7RG      0.040033
     53 H29A       -4.9440    2.8520    4.0790 hc        1 7RG      0.040033
     54 H29B       -4.6160    1.6420    5.3850 hc        1 7RG      0.040033
@<TRIPOS>BOND
     1    1    2 1   
     2    1   10 1   
     3    1   23 1   
     4    2    3 2   
     5    3    4 1   
     6    3   30 1   
     7    4    5 1   
     8    4   10 2   
     9    5    6 2   
    10    5    7 1   
    11    7    8 1   
    12    7   31 1   
    13    8    9 2   
    14    8   11 1   
    15    9   10 1   
    16   11   12 1   
    17   11   15 1   
    18   11   32 1   
    19   12   13 1   
    20   12   33 1   
    21   12   34 1   
    22   13   14 1   
    23   13   16 1   
    24   14   15 1   
    25   14   35 1   
    26   14   36 1   
    27   15   29 1   
    28   15   37 1   
    29   16   17 1   
    30   16   38 1   
    31   16   39 1   
    32   17   18 ar  
    33   17   22 ar  
    34   18   19 ar  
    35   19   20 ar  
    36   19   40 1   
    37   20   21 ar  
    38   20   41 1   
    39   21   22 ar  
    40   21   42 1   
    41   23   24 1   
    42   23   28 1   
    43   23   43 1   
    44   24   25 1   
    45   24   44 1   
    46   24   45 1   
    47   25   26 1   
    48   25   46 1   
    49   25   47 1   
    50   26   27 1   
    51   27   28 1   
    52   27   48 1   
    53   27   49 1   
    54   28   50 1   
    55   28   51 1   
    56   29   52 1   
    57   29   53 1   
    58   29   54 1   
@<TRIPOS>SUBSTRUCTURE
     1 7RG         1 TEMP              0 ****  ****    0 ROOT
