@<TRIPOS>MOLECULE
7RG
   54    52     1     0     0
SMALL
bcc


@<TRIPOS>ATOM
      1 N1          2.5620    1.7440   -0.7170 n2        1 7RG     -0.092000
      2 N2          3.7520    1.0830   -0.8710 n2        1 7RG     -0.092000
      3 C3          3.5530   -0.2250   -0.5530 c1        1 7RG     -0.013500
      4 C4          2.2470   -0.3780   -0.2030 c1        1 7RG     -0.290000
      5 C5          1.5390   -1.5150    0.4640 c1        1 7RG      0.384000
      6 O6          2.1120   -2.6380    0.5740 o         1 7RG     -0.344000
      7 N7          0.2090   -1.3550    0.8980 n3        1 7RG     -0.325000
      8 C8         -0.4590   -0.1160    0.7020 c2        1 7RG      0.147000
      9 N9          0.2380    0.9890    0.0500 n1        1 7RG     -0.204000
     10 C10         1.6350    0.8480   -0.3070 c1        1 7RG     -0.013500
     11 C11        -1.8050    0.1130    1.3500 c3        1 7RG     -0.079000
     12 C12        -2.2690   -1.0610    1.5700 c3        1 7RG     -0.076000
     13 N13        -2.9150   -1.5750    0.1910 n3        1 7RG     -0.264000
     14 C14        -3.4710   -0.6060   -0.3140 c3        1 7RG     -0.081000
     15 C15        -2.7090    0.6190    0.2010 c3        1 7RG     -0.121000
     16 C16        -3.8760   -2.5720    0.4590 c3        1 7RG     -0.001000
     17 C17        -3.1770   -3.9160    0.6900 c2        1 7RG      0.024000
     18 N18        -3.0980   -4.8340   -0.3340 n2        1 7RG     -0.171000
     19 C19        -2.6150   -6.0790   -0.0890 c1        1 7RG     -0.035000
     20 C20        -2.2010   -6.4260    1.1910 c1        1 7RG     -0.133500
     21 C21        -2.2790   -5.5220    2.2010 c1        1 7RG     -0.133500
     22 N22        -2.7650   -4.2660    1.9620 n1        1 7RG     -0.161000
     23 C23         2.9500    3.0930   -1.2180 c2        1 7RG      0.057000
     24 C24         3.8420    2.9370   -2.3670 c3        1 7RG     -0.205000
     25 C25         4.4370    4.2640   -2.8290 c3        1 7RG     -0.025000
     26 O26         5.0660    5.0070   -1.7350 os        1 7RG     -0.268000
     27 C27         4.1710    5.1690   -0.5610 c3        1 7RG     -0.025000
     28 C28         3.5920    3.8620   -0.0980 c3        1 7RG     -0.205000
     29 C29        -3.6550    1.6350    0.7050 c3        1 7RG     -0.210000
     30 H3          4.2270   -0.9290   -0.5730 DU        1 7RG      0.196000
     31 HN7        -0.2010   -2.0110    1.2830 hn        1 7RG      0.268000
     32 H11        -1.5840    0.7630    2.1880 hc        1 7RG      0.140000
     33 H12        -2.9820   -1.0230    2.2970 h1        1 7RG      0.093500
     34 H12A       -1.5690   -1.6390    1.8330 h1        1 7RG      0.093500
     35 H14        -4.3730   -0.5680   -0.0420 h1        1 7RG      0.099500
     36 H14A       -3.4160   -0.6550   -1.2800 h1        1 7RG      0.099500
     37 H15        -2.1940    0.9720   -0.4710 hc        1 7RG      0.110000
     38 H16        -4.3580   -2.3420    1.2130 h1        1 7RG      0.100000
     39 H16A       -4.4810   -2.6480   -0.3030 h1        1 7RG      0.100000
     40 H19        -2.5580   -6.7200   -0.7990 ha        1 7RG      0.166000
     41 H20        -1.8650   -7.2950    1.3610 ha        1 7RG      0.162500
     42 H21        -1.9840   -5.7740    3.1110 ha        1 7RG      0.162500
     43 H23         2.1660    3.5540   -1.4990 ha        1 7RG      0.123000
     44 H24         4.6010    2.3070   -2.1120 hc        1 7RG      0.109500
     45 H24A        3.3540    2.5570   -3.0790 hc        1 7RG      0.109500
     46 H25         5.1690    4.0690   -3.5800 h1        1 7RG      0.090250
     47 H25A        3.7060    4.8280   -3.2250 h1        1 7RG      0.090250
     48 H27         3.4530    5.7570   -0.7970 h1        1 7RG      0.090250
     49 H27A        4.6600    5.5550    0.1460 h1        1 7RG      0.090250
     50 H28         4.3010    3.3210    0.2940 hc        1 7RG      0.109500
     51 H28A        2.9360    4.0370    0.5650 hc        1 7RG      0.109500
     52 H29        -3.1420    2.3700    1.1720 hc        1 7RG      0.081667
     53 H29A       -4.1790    2.0290   -0.0730 hc        1 7RG      0.081667
     54 H29B       -4.2950    1.2070    1.3570 hc        1 7RG      0.081667
@<TRIPOS>BOND
     1    1    2 1   
     2    1   10 1   
     3    2    3 1   
     4    3    4 1   
     5    4   10 1   
     6    5    6 1   
     7    5    7 1   
     8    7    8 1   
     9    7   31 1   
    10    8    9 1   
    11    8   11 1   
    12   11   12 1   
    13   11   15 1   
    14   11   32 1   
    15   12   13 1   
    16   12   33 1   
    17   12   34 1   
    18   13   14 1   
    19   13   16 1   
    20   14   15 1   
    21   14   35 1   
    22   14   36 1   
    23   15   29 1   
    24   15   37 1   
    25   16   17 1   
    26   16   38 1   
    27   16   39 1   
    28   17   18 1   
    29   17   22 1   
    30   18   19 1   
    31   19   40 1   
    32   20   21 1   
    33   20   41 1   
    34   21   42 1   
    35   23   24 1   
    36   23   28 1   
    37   23   43 1   
    38   24   25 1   
    39   24   44 1   
    40   24   45 1   
    41   25   26 1   
    42   25   46 1   
    43   25   47 1   
    44   26   27 1   
    45   27   28 1   
    46   27   48 1   
    47   27   49 1   
    48   28   50 1   
    49   28   51 1   
    50   29   52 1   
    51   29   53 1   
    52   29   54 1   
@<TRIPOS>SUBSTRUCTURE
     1 7RG         1 TEMP              0 ****  ****    0 ROOT
