@<TRIPOS>MOLECULE
7RG
   54    58     1     0     0
SMALL
bcc


@<TRIPOS>ATOM
      1 N1          0.0440    0.0030   -0.0790 na        1 7RG      0.109400
      2 N2          1.3830    0.1360   -0.1920 nc        1 7RG     -0.506800
      3 C3          1.9070    0.2860    1.0470 cd        1 7RG      0.379200
      4 C4          0.8560    0.2480    2.0270 cd        1 7RG     -0.373900
      5 C5          0.7790    0.3470    3.4610 c         1 7RG      0.749100
      6 O6          1.7100    0.5090    4.2680 o         1 7RG     -0.620500
      7 N7         -0.5420    0.2420    3.9730 ns        1 7RG     -0.495400
      8 C8         -1.6590    0.0630    3.1530 cd        1 7RG      0.519900
      9 N9         -1.6210   -0.0310    1.8230 nc        1 7RG     -0.619100
     10 C10        -0.3500    0.0610    1.2650 cc        1 7RG      0.173100
     11 C11        -3.0050   -0.0310    3.8590 c3        1 7RG     -0.129000
     12 C12        -3.6990   -1.3910    3.5940 c3        1 7RG      0.170800
     13 N13        -5.1270   -1.1600    3.3770 n3        1 7RG     -0.713600
     14 C14        -5.3040    0.2580    3.0610 c3        1 7RG      0.158800
     15 C15        -4.0060    1.0370    3.3860 c3        1 7RG     -0.081700
     16 C16        -5.9830   -1.6610    4.4380 c3        1 7RG      0.131500
     17 C17        -7.3480   -2.0830    3.8760 ca        1 7RG      0.648300
     18 N18        -7.5930   -3.4270    3.7750 nb        1 7RG     -0.692000
     19 C19        -8.7930   -3.7810    3.2770 ca        1 7RG      0.429700
     20 C20        -9.7570   -2.8380    2.8740 ca        1 7RG     -0.366600
     21 C21        -9.4080   -1.4820    3.0230 ca        1 7RG      0.429700
     22 N22        -8.2190   -1.0890    3.5180 nb        1 7RG     -0.692000
     23 C23        -0.8560   -0.1920   -1.2170 c3        1 7RG      0.075000
     24 C24        -0.5670   -1.4930   -1.9820 c3        1 7RG     -0.125900
     25 C25        -1.5680   -1.6370   -3.1160 c3        1 7RG      0.125400
     26 O26        -1.5410   -0.5210   -3.9990 os        1 7RG     -0.411600
     27 C27        -1.7960    0.7120   -3.3380 c3        1 7RG      0.125400
     28 C28        -0.8070    0.9750   -2.2150 c3        1 7RG     -0.125900
     29 C29        -4.2400    2.0920    4.4400 c3        1 7RG     -0.095100
     30 H3          2.9780    0.4130    1.2200 h4        1 7RG      0.059100
     31 HN7        -0.6630    0.3050    4.9600 hn        1 7RG      0.335500
     32 H11        -2.8540    0.0780    4.9690 hc        1 7RG      0.062700
     33 H12        -3.4980   -2.0940    4.4450 h1        1 7RG      0.065200
     34 H12A       -3.3100   -1.8660    2.6520 h1        1 7RG      0.065200
     35 H14        -6.1790    0.7070    3.6030 h1        1 7RG      0.065700
     36 H14A       -5.5090    0.3190    1.9570 h1        1 7RG      0.065700
     37 H15        -3.6440    1.5380    2.4500 hc        1 7RG      0.079700
     38 H16        -6.1700   -0.8990    5.2510 h1        1 7RG      0.058200
     39 H16A       -5.5030   -2.5620    4.9160 h1        1 7RG      0.058200
     40 H19        -8.9830   -4.8670    3.1980 h4        1 7RG      0.028600
     41 H20       -10.7260   -3.1420    2.4660 ha        1 7RG      0.155000
     42 H21       -10.1050   -0.6750    2.7350 h4        1 7RG      0.028600
     43 H23        -1.9010   -0.2530   -0.7870 h1        1 7RG      0.086700
     44 H24        -0.6520   -2.3770   -1.3000 hc        1 7RG      0.069700
     45 H24A        0.4730   -1.4690   -2.3980 hc        1 7RG      0.069700
     46 H25        -1.3030   -2.5090   -3.7720 h1        1 7RG      0.052200
     47 H25A       -2.6070   -1.7680   -2.7110 h1        1 7RG      0.052200
     48 H27        -1.6900    1.4820   -4.1490 h1        1 7RG      0.052200
     49 H27A       -2.8480    0.7160   -2.9460 h1        1 7RG      0.052200
     50 H28         0.2260    1.0730   -2.6390 hc        1 7RG      0.069700
     51 H28A       -1.0690    1.9380   -1.7080 hc        1 7RG      0.069700
     52 H29        -4.9780    2.8450    4.0690 hc        1 7RG      0.040033
     53 H29A       -3.2870    2.6220    4.6820 hc        1 7RG      0.040033
     54 H29B       -4.6430    1.6400    5.3780 hc        1 7RG      0.040033
@<TRIPOS>BOND
     1    1    2 1   
     2    1   10 1   
     3    1   23 1   
     4    2    3 2   
     5    3    4 1   
     6    3   30 1   
     7    4    5 1   
     8    4   10 2   
     9    5    6 2   
    10    5    7 1   
    11    7    8 1   
    12    7   31 1   
    13    8    9 2   
    14    8   11 1   
    15    9   10 1   
    16   11   12 1   
    17   11   15 1   
    18   11   32 1   
    19   12   13 1   
    20   12   33 1   
    21   12   34 1   
    22   13   14 1   
    23   13   16 1   
    24   14   15 1   
    25   14   35 1   
    26   14   36 1   
    27   15   29 1   
    28   15   37 1   
    29   16   17 1   
    30   16   38 1   
    31   16   39 1   
    32   17   18 ar  
    33   17   22 ar  
    34   18   19 ar  
    35   19   20 ar  
    36   19   40 1   
    37   20   21 ar  
    38   20   41 1   
    39   21   22 ar  
    40   21   42 1   
    41   23   24 1   
    42   23   28 1   
    43   23   43 1   
    44   24   25 1   
    45   24   44 1   
    46   24   45 1   
    47   25   26 1   
    48   25   46 1   
    49   25   47 1   
    50   26   27 1   
    51   27   28 1   
    52   27   48 1   
    53   27   49 1   
    54   28   50 1   
    55   28   51 1   
    56   29   52 1   
    57   29   53 1   
    58   29   54 1   
@<TRIPOS>SUBSTRUCTURE
     1 7RG         1 TEMP              0 ****  ****    0 ROOT
