@<TRIPOS>MOLECULE
7RO
   62    53     1     0     0
SMALL
bcc


@<TRIPOS>ATOM
      1 O2         -1.8660    2.4910    1.5820 o         1 7RO     -0.371000
      2 C20        -0.8670    3.0670    1.1920 c1        1 7RO      0.424000
      3 O1         -0.4060    4.2300    1.8690 o         1 7RO     -0.258000
      4 C21        -1.3760    4.8170    2.7380 c3        1 7RO      0.110000
      5 C24        -1.6480    3.8710    3.9150 c3        1 7RO     -0.234333
      6 C23        -2.6780    5.0570    1.9630 c3        1 7RO     -0.234333
      7 C22        -0.8430    6.1560    3.2690 c3        1 7RO     -0.234333
      8 N5         -0.1460    2.5650    0.0520 n3        1 7RO     -0.169000
      9 C4          0.8330    3.2250   -0.6300 c1        1 7RO      0.094000
     10 C3          2.2400    3.8180   -0.7580 c1        1 7RO     -0.152000
     11 C1          3.3920    3.2710   -0.2580 c1        1 7RO     -0.105000
     12 N1          4.4280    4.0470   -0.6520 n2        1 7RO     -0.103000
     13 C2          2.5780    4.9410   -1.4650 c1        1 7RO     -0.105000
     14 N           3.9220    5.0850   -1.4020 n2        1 7RO     -0.103000
     15 C           4.6920    6.1070   -2.0530 c2        1 7RO     -0.060000
     16 C19        -0.3830    1.3560   -0.5970 c1        1 7RO      0.054000
     17 C6          0.4510    1.2850   -1.6700 c1        1 7RO     -0.137000
     18 C5          1.2110    2.4420   -1.6980 c1        1 7RO     -0.166000
     19 C18        -1.2130    0.2860   -0.2930 c1        1 7RO     -0.166000
     20 C8         -1.1900   -0.8610   -1.0860 c1        1 7RO      0.082000
     21 N2         -0.3500   -0.9320   -2.1660 n1        1 7RO     -0.182000
     22 C7          0.4700    0.1240   -2.4690 c1        1 7RO     -0.006000
     23 N3         -1.9880   -1.9900   -1.4610 n3        1 7RO     -0.228000
     24 C9         -1.6610   -3.2940   -0.9650 c2        1 7RO      0.100000
     25 C17        -2.3240   -3.8000    0.1470 c2        1 7RO     -0.183000
     26 C16        -2.0770   -5.1010    0.5720 c1        1 7RO     -0.047000
     27 C12        -1.1670   -5.8960   -0.1160 c1        1 7RO     -0.147000
     28 C11        -0.5030   -5.3900   -1.2290 c1        1 7RO     -0.064000
     29 C10        -0.7500   -4.0900   -1.6530 c1        1 7RO     -0.128000
     30 CL          0.0300   -3.4790   -3.0920 cl        1 7RO     -0.015000
     31 C13        -0.8790   -7.3180    0.3630 c2        1 7RO      0.353000
     32 O          -1.4480   -7.7560    1.3500 o         1 7RO     -0.364000
     33 N4          0.0550   -8.1400   -0.3500 n         1 7RO     -0.338000
     34 C15        -0.2910   -8.6620   -1.6460 c3        1 7RO     -0.075500
     35 C14         1.2860   -8.5380    0.2790 c3        1 7RO     -0.075500
     36 H241       -1.8620    4.3980    4.7170 hc        1 7RO      0.094889
     37 H242       -2.4050    3.2860    3.6970 hc        1 7RO      0.094889
     38 H243       -0.8500    3.3240    4.0870 hc        1 7RO      0.094889
     39 H231       -2.4700    5.4390    1.0820 hc        1 7RO      0.094889
     40 H232       -3.1520    4.2040    1.8470 hc        1 7RO      0.094889
     41 H233       -3.2480    5.6820    2.4650 hc        1 7RO      0.094889
     42 H221       -0.6830    6.7670    2.5170 hc        1 7RO      0.094889
     43 H222       -0.0000    6.0050    3.7540 hc        1 7RO      0.094889
     44 H223       -1.5050    6.5540    3.8800 hc        1 7RO      0.094889
     45 H5          1.8980    2.6650   -2.3630 DU        1 7RO      0.178000
     46 H1          3.4550    2.4590    0.2890 DU        1 7RO      0.178000
     47 H2          1.9540    5.5370   -1.9350 DU        1 7RO      0.178000
     48 HC1         4.2350    6.3860   -2.8770 ha        1 7RO      0.099667
     49 HC2         4.7840    6.8800   -1.4520 ha        1 7RO      0.099667
     50 HC3         5.5830    5.7550   -2.2750 ha        1 7RO      0.099667
     51 H18        -1.8150    0.3360    0.4810 ha        1 7RO      0.188000
     52 H7          1.0720    0.0720   -3.2430 ha        1 7RO      0.167000
     53 H3         -2.7410   -1.8700   -1.9720 hn        1 7RO      0.232000
     54 H17        -2.9650   -3.2390    0.6320 ha        1 7RO      0.155000
     55 H16        -2.5450   -5.4580    1.3560 ha        1 7RO      0.155000
     56 H11         0.1380   -5.9500   -1.7140 ha        1 7RO      0.153000
     57 H151       -0.9830   -9.3540   -1.5470 h1        1 7RO      0.082333
     58 H152       -0.6330   -7.9350   -2.2100 h1        1 7RO      0.082333
     59 H153        0.5070   -9.0540   -2.0650 h1        1 7RO      0.082333
     60 H141        1.0900   -9.1440    1.0290 h1        1 7RO      0.082333
     61 H142        1.8540   -9.0010   -0.3760 h1        1 7RO      0.082333
     62 H143        1.7550   -7.7420    0.6150 h1        1 7RO      0.082333
@<TRIPOS>BOND
     1    1    2 1   
     2    2    8 1   
     3    3    4 1   
     4    4    5 1   
     5    4    6 1   
     6    4    7 1   
     7    5   36 1   
     8    5   37 1   
     9    5   38 1   
    10    6   39 1   
    11    6   40 1   
    12    6   41 1   
    13    7   42 1   
    14    7   43 1   
    15    7   44 1   
    16    8    9 1   
    17    8   16 1   
    18    9   18 1   
    19   10   11 1   
    20   10   13 1   
    21   11   12 1   
    22   12   14 1   
    23   13   14 1   
    24   15   48 1   
    25   15   49 1   
    26   15   50 1   
    27   16   19 1   
    28   17   22 1   
    29   19   51 1   
    30   20   21 1   
    31   20   23 1   
    32   22   52 1   
    33   23   24 1   
    34   23   53 1   
    35   24   25 1   
    36   24   29 1   
    37   25   26 1   
    38   25   54 1   
    39   26   55 1   
    40   27   28 1   
    41   27   31 1   
    42   28   56 1   
    43   29   30 1   
    44   31   32 1   
    45   31   33 1   
    46   33   34 1   
    47   33   35 1   
    48   34   57 1   
    49   34   58 1   
    50   34   59 1   
    51   35   60 1   
    52   35   61 1   
    53   35   62 1   
@<TRIPOS>SUBSTRUCTURE
     1 7RO         1 TEMP              0 ****  ****    0 ROOT
