@<TRIPOS>MOLECULE
7RO
   63    66     1     0     0
SMALL
bcc


@<TRIPOS>ATOM
      1 O2          1.0180   -1.4870    0.2410 o         1 7RO     -0.564000
      2 C20         1.4650   -0.3440    0.0600 c         1 7RO      0.774100
      3 O1          1.1370    0.6940    0.8740 os        1 7RO     -0.412900
      4 C21         0.2490    0.4490    2.0150 c3        1 7RO      0.182800
      5 C24         0.8460   -0.5840    2.9520 c3        1 7RO     -0.117433
      6 C23         0.2050    1.8210    2.6840 c3        1 7RO     -0.117433
      7 C22        -1.1290    0.0450    1.5210 c3        1 7RO     -0.117433
      8 N5          2.3440   -0.0160   -0.9900 n         1 7RO     -0.229200
      9 C4          2.8850    1.2450   -1.3810 cc        1 7RO      0.143400
     10 C3          2.5010    2.5170   -0.8560 cc        1 7RO     -0.256100
     11 C1          1.1820    3.0160   -0.5240 cc        1 7RO      0.349200
     12 N1          1.2570    4.3110   -0.1370 nd        1 7RO     -0.506800
     13 C2          3.3600    3.6170   -0.6360 cd        1 7RO     -0.100300
     14 N           2.5550    4.6680   -0.2010 na        1 7RO      0.100400
     15 C           3.0380    5.9880    0.1300 c3        1 7RO      0.034600
     16 C19         2.9630   -1.0060   -1.7850 ca        1 7RO      0.034600
     17 C6          3.9000   -0.3570   -2.6710 ca        1 7RO     -0.184100
     18 C5          3.8280    1.0530   -2.3950 cd        1 7RO     -0.173200
     19 C18         2.7960   -2.3950   -1.8320 ca        1 7RO     -0.208300
     20 C8          3.5940   -3.0910   -2.7720 ca        1 7RO      0.566200
     21 N2          4.4920   -2.4880   -3.6230 nb        1 7RO     -0.696000
     22 C7          4.6260   -1.1610   -3.5650 ca        1 7RO      0.452200
     23 N3          3.4800   -4.5140   -2.7920 nu        1 7RO     -0.702300
     24 C9          3.4570   -5.2780   -3.9210 ca        1 7RO      0.303600
     25 C17         3.1600   -4.7470   -5.2130 ca        1 7RO     -0.188000
     26 C16         3.0840   -5.5600   -6.3190 ca        1 7RO      0.006000
     27 C12         3.2790   -6.9590   -6.2170 ca        1 7RO     -0.288600
     28 C11         3.5790   -7.5070   -4.9580 ca        1 7RO     -0.031000
     29 C10         3.6630   -6.7010   -3.8380 ca        1 7RO     -0.090600
     30 Cl          4.0350   -7.4260   -2.3460 cl        1 7RO     -0.058400
     31 C13         3.1850   -7.7190   -7.4420 c         1 7RO      0.587700
     32 O           3.2350   -7.3210   -8.6010 o         1 7RO     -0.457100
     33 N4          2.9620   -9.2360   -7.2990 nx        1 7RO     -0.595200
     34 C15         4.2510   -9.9450   -7.4840 c3        1 7RO      0.085100
     35 C14         1.9450   -9.7080   -8.2700 c3        1 7RO      0.085100
     36 H241        1.9220   -0.3550    3.1400 hc        1 7RO      0.058144
     37 H242        0.2960   -0.5590    3.9230 hc        1 7RO      0.058144
     38 H243        0.7650   -1.6100    2.5180 hc        1 7RO      0.058144
     39 H231       -0.5520    1.7980    3.5030 hc        1 7RO      0.058144
     40 H232        1.2040    2.0750    3.1100 hc        1 7RO      0.058144
     41 H233       -0.0770    2.6040    1.9390 hc        1 7RO      0.058144
     42 H221       -1.0950   -0.9600    1.0340 hc        1 7RO      0.058144
     43 H222       -1.5060    0.7930    0.7830 hc        1 7RO      0.058144
     44 H223       -1.8320    0.0030    2.3860 hc        1 7RO      0.058144
     45 H5          4.3920    1.8340   -2.8990 ha        1 7RO      0.173000
     46 H1          0.2390    2.4670   -0.5470 h4        1 7RO      0.053100
     47 H2          4.4400    3.7070   -0.7510 h4        1 7RO      0.184000
     48 HC1         4.1540    6.0000    0.0230 h1        1 7RO      0.066367
     49 HC2         2.5830    6.7470   -0.5620 h1        1 7RO      0.066367
     50 HC3         2.7580    6.2450    1.1870 h1        1 7RO      0.066367
     51 H18         2.0820   -2.9070   -1.1670 ha        1 7RO      0.190000
     52 H7          5.3570   -0.7190   -4.2670 h4        1 7RO      0.041100
     53 H3          3.6710   -4.9570   -1.9150 hn        1 7RO      0.466800
     54 H17         2.9870   -3.6640   -5.3330 ha        1 7RO      0.183000
     55 H16         2.8640   -5.1210   -7.3090 ha        1 7RO      0.167000
     56 H11         3.7880   -8.5820   -4.8350 ha        1 7RO      0.130000
     57 H151        4.0920  -11.0520   -7.3900 hx        1 7RO      0.104700
     58 H152        4.9790   -9.5980   -6.7030 hx        1 7RO      0.104700
     59 H153        4.6570   -9.7100   -8.5060 hx        1 7RO      0.104700
     60 H141        0.9720   -9.1880   -8.0630 hx        1 7RO      0.104700
     61 H142        1.8150  -10.8180   -8.1670 hx        1 7RO      0.104700
     62 H143        2.2820   -9.4600   -9.3130 hx        1 7RO      0.104700
     63 H41         2.6130   -9.4200   -6.3510 hn        1 7RO      0.449800
@<TRIPOS>BOND
     1    1    2 2   
     2    2    3 1   
     3    2    8 1   
     4    3    4 1   
     5    4    5 1   
     6    4    6 1   
     7    4    7 1   
     8    5   36 1   
     9    5   37 1   
    10    5   38 1   
    11    6   39 1   
    12    6   40 1   
    13    6   41 1   
    14    7   42 1   
    15    7   43 1   
    16    7   44 1   
    17    8    9 1   
    18    8   16 1   
    19    9   10 1   
    20    9   18 2   
    21   10   11 1   
    22   10   13 2   
    23   11   12 2   
    24   11   46 1   
    25   12   14 1   
    26   13   14 1   
    27   13   47 1   
    28   14   15 1   
    29   15   48 1   
    30   15   49 1   
    31   15   50 1   
    32   16   17 ar  
    33   16   19 ar  
    34   17   18 1   
    35   17   22 ar  
    36   18   45 1   
    37   19   20 ar  
    38   19   51 1   
    39   20   21 ar  
    40   20   23 1   
    41   21   22 ar  
    42   22   52 1   
    43   23   24 1   
    44   23   53 1   
    45   24   25 ar  
    46   24   29 ar  
    47   25   26 ar  
    48   25   54 1   
    49   26   27 ar  
    50   26   55 1   
    51   27   28 ar  
    52   27   31 1   
    53   28   29 ar  
    54   28   56 1   
    55   29   30 1   
    56   31   32 2   
    57   31   33 1   
    58   33   34 1   
    59   33   35 1   
    60   33   63 1   
    61   34   57 1   
    62   34   58 1   
    63   34   59 1   
    64   35   60 1   
    65   35   61 1   
    66   35   62 1   
@<TRIPOS>SUBSTRUCTURE
     1 7RO         1 TEMP              0 ****  ****    0 ROOT
