@<TRIPOS>MOLECULE
7RO
   62    65     1     0     0
SMALL
bcc


@<TRIPOS>ATOM
      1 O2          2.5920    2.1010   -0.8100 o         1 7RO     -0.566000
      2 C20         3.2960    1.1700   -0.3920 c         1 7RO      0.771100
      3 O1          4.6400    1.3310   -0.2110 os        1 7RO     -0.419900
      4 C21         5.2370    2.6350   -0.4900 c3        1 7RO      0.181800
      5 C24         4.6150    3.7160    0.3750 c3        1 7RO     -0.115767
      6 C23         6.6970    2.4130   -0.0980 c3        1 7RO     -0.115767
      7 C22         5.1250    2.9570   -1.9700 c3        1 7RO     -0.115767
      8 N5          2.8100   -0.1050   -0.0780 n         1 7RO     -0.234200
      9 C4          3.5080   -1.2680    0.3810 cc        1 7RO      0.097400
     10 C3          4.9290   -1.4160    0.4410 cc        1 7RO     -0.225100
     11 C1          5.9360   -1.0330   -0.5300 cc        1 7RO      0.344200
     12 N1          7.1620   -1.4370   -0.1180 nd        1 7RO     -0.517800
     13 C2          5.6530   -2.0750    1.4560 cd        1 7RO     -0.115300
     14 N           6.9940   -2.0560    1.0670 na        1 7RO      0.088400
     15 C           8.0720   -2.6460    1.8210 c3        1 7RO      0.039600
     16 C19         1.4250   -0.3920   -0.0100 ca        1 7RO      0.071600
     17 C6          1.2650   -1.7350    0.4910 ca        1 7RO     -0.238100
     18 C5          2.5890   -2.2560    0.7250 cd        1 7RO     -0.144200
     19 C18         0.3080    0.3760   -0.3380 ca        1 7RO     -0.283300
     20 C8         -0.9680   -0.2350   -0.1550 ca        1 7RO      0.643200
     21 N2         -1.1280   -1.5150    0.3300 nb        1 7RO     -0.717000
     22 C7         -0.0380   -2.2270    0.6320 ca        1 7RO      0.471200
     23 N3         -2.0960    0.5260   -0.5370 nh        1 7RO     -0.720300
     24 C9         -3.4170    0.1170   -0.2870 ca        1 7RO      0.175600
     25 C17        -3.8920   -1.1410   -0.7220 ca        1 7RO     -0.122000
     26 C16        -5.2240   -1.4960   -0.5520 ca        1 7RO     -0.087000
     27 C12        -6.1270   -0.6120    0.0450 ca        1 7RO     -0.149600
     28 C11        -5.6830    0.6340    0.4910 ca        1 7RO     -0.059000
     29 C10        -4.3480    0.9990    0.3240 ca        1 7RO     -0.042600
     30 CL         -3.8560    2.5360    0.8750 cl        1 7RO     -0.095400
     31 C13        -7.5470   -0.9910    0.2920 c         1 7RO      0.677700
     32 O          -8.0440   -0.8840    1.4330 o         1 7RO     -0.600100
     33 N4         -8.3160   -1.4660   -0.7610 n         1 7RO     -0.479800
     34 C15        -9.6650   -1.9060   -0.5350 c3        1 7RO      0.080300
     35 C14        -7.8540   -1.4920   -2.1170 c3        1 7RO      0.080300
     36 H241        4.5360    3.3630    1.4310 hc        1 7RO      0.055144
     37 H242        5.2590    4.6270    0.3440 hc        1 7RO      0.055144
     38 H243        3.5950    3.9810    0.0060 hc        1 7RO      0.055144
     39 H231        7.1010    1.5080   -0.6150 hc        1 7RO      0.055144
     40 H232        7.2920    3.3080   -0.3950 hc        1 7RO      0.055144
     41 H233        6.7820    2.2610    1.0040 hc        1 7RO      0.055144
     42 H221        4.0590    3.1260   -2.2560 hc        1 7RO      0.055144
     43 H222        5.7100    3.8810   -2.1930 hc        1 7RO      0.055144
     44 H223        5.5330    2.1130   -2.5770 hc        1 7RO      0.055144
     45 H5          2.8270   -3.2530    1.0870 ha        1 7RO      0.163000
     46 H1          5.7820   -0.4800   -1.4580 h4        1 7RO      0.052100
     47 H2          5.3150   -2.5290    2.3870 h4        1 7RO      0.181000
     48 HC1         8.8680   -1.8800    2.0200 h1        1 7RO      0.060033
     49 HC2         7.6650   -3.0260    2.7940 h1        1 7RO      0.060033
     50 HC3         8.5230   -3.4980    1.2440 h1        1 7RO      0.060033
     51 H18         0.4150    1.4000   -0.7240 ha        1 7RO      0.180000
     52 H7         -0.2270   -3.2480    1.0140 h4        1 7RO      0.028100
     53 H3         -1.9420    1.5130   -0.4520 hn        1 7RO      0.434800
     54 H17        -3.2040   -1.8550   -1.2020 ha        1 7RO      0.162000
     55 H16        -5.5670   -2.4860   -0.8920 ha        1 7RO      0.144000
     56 H11        -6.3900    1.3190    0.9890 ha        1 7RO      0.165000
     57 H151      -10.3900   -1.1950   -1.0160 h1        1 7RO      0.043033
     58 H152       -9.8080   -2.9250   -0.9860 h1        1 7RO      0.043033
     59 H153       -9.8810   -1.9560    0.5650 h1        1 7RO      0.043033
     60 H141       -7.5210   -2.5290   -2.3960 h1        1 7RO      0.043033
     61 H142       -8.6900   -1.1910   -2.8070 h1        1 7RO      0.043033
     62 H143       -6.9970   -0.7840   -2.2670 h1        1 7RO      0.043033
@<TRIPOS>BOND
     1    1    2 2   
     2    2    3 1   
     3    2    8 1   
     4    3    4 1   
     5    4    5 1   
     6    4    6 1   
     7    4    7 1   
     8    5   36 1   
     9    5   37 1   
    10    5   38 1   
    11    6   39 1   
    12    6   40 1   
    13    6   41 1   
    14    7   42 1   
    15    7   43 1   
    16    7   44 1   
    17    8    9 1   
    18    8   16 1   
    19    9   10 1   
    20    9   18 2   
    21   10   11 1   
    22   10   13 2   
    23   11   12 2   
    24   11   46 1   
    25   12   14 1   
    26   13   14 1   
    27   13   47 1   
    28   14   15 1   
    29   15   48 1   
    30   15   49 1   
    31   15   50 1   
    32   16   17 ar  
    33   16   19 ar  
    34   17   18 1   
    35   17   22 ar  
    36   18   45 1   
    37   19   20 ar  
    38   19   51 1   
    39   20   21 ar  
    40   20   23 1   
    41   21   22 ar  
    42   22   52 1   
    43   23   24 1   
    44   23   53 1   
    45   24   25 ar  
    46   24   29 ar  
    47   25   26 ar  
    48   25   54 1   
    49   26   27 ar  
    50   26   55 1   
    51   27   28 ar  
    52   27   31 1   
    53   28   29 ar  
    54   28   56 1   
    55   29   30 1   
    56   31   32 2   
    57   31   33 1   
    58   33   34 1   
    59   33   35 1   
    60   34   57 1   
    61   34   58 1   
    62   34   59 1   
    63   35   60 1   
    64   35   61 1   
    65   35   62 1   
@<TRIPOS>SUBSTRUCTURE
     1 7RO         1 TEMP              0 ****  ****    0 ROOT
