@<TRIPOS>MOLECULE
7RO
   63    66     1     0     0
SMALL
bcc


@<TRIPOS>ATOM
      1 O2          1.0400   -1.5160    0.2660 o         1 7RO     -0.564000
      2 C20         1.4600   -0.3640    0.0780 c         1 7RO      0.774100
      3 O1          1.1290    0.6660    0.9000 os        1 7RO     -0.412900
      4 C21         0.2710    0.4020    2.0580 c3        1 7RO      0.182800
      5 C24         0.9090   -0.6190    2.9810 c3        1 7RO     -0.117433
      6 C23         0.2140    1.7720    2.7300 c3        1 7RO     -0.117433
      7 C22        -1.1080   -0.0280    1.5940 c3        1 7RO     -0.117433
      8 N5          2.3110   -0.0180   -0.9910 n         1 7RO     -0.229200
      9 C4          2.8190    1.2540   -1.3910 cc        1 7RO      0.143400
     10 C3          2.4210    2.5180   -0.8560 cc        1 7RO     -0.256100
     11 C1          1.0990    2.9910   -0.4950 cc        1 7RO      0.349200
     12 N1          1.1560    4.2870   -0.1080 nd        1 7RO     -0.506800
     13 C2          3.2610    3.6350   -0.6520 cd        1 7RO     -0.100300
     14 N           2.4450    4.6690   -0.1990 na        1 7RO      0.100400
     15 C           2.9090    5.9980    0.1240 c3        1 7RO      0.034600
     16 C19         2.9320   -0.9940   -1.8000 ca        1 7RO      0.035600
     17 C6          3.8380   -0.3260   -2.7040 ca        1 7RO     -0.184100
     18 C5          3.7440    1.0820   -2.4240 cd        1 7RO     -0.173200
     19 C18         2.7920   -2.3860   -1.8450 ca        1 7RO     -0.208300
     20 C8          3.5840   -3.0650   -2.8020 ca        1 7RO      0.566200
     21 N2          4.4520   -2.4430   -3.6710 nb        1 7RO     -0.696000
     22 C7          4.5620   -1.1150   -3.6140 ca        1 7RO      0.453200
     23 N3          3.4980   -4.4900   -2.8220 nh        1 7RO     -0.702300
     24 C9          3.4740   -5.2550   -3.9500 ca        1 7RO      0.303600
     25 C17         3.1490   -4.7310   -5.2380 ca        1 7RO     -0.188000
     26 C16         3.0760   -5.5460   -6.3430 ca        1 7RO      0.006000
     27 C12         3.3010   -6.9400   -6.2430 ca        1 7RO     -0.288600
     28 C11         3.6290   -7.4810   -4.9880 ca        1 7RO     -0.031000
     29 C10         3.7110   -6.6730   -3.8700 ca        1 7RO     -0.090600
     30 CL          4.1160   -7.3900   -2.3820 cl        1 7RO     -0.058400
     31 C13         3.2080   -7.7030   -7.4670 c         1 7RO      0.587700
     32 O           3.2330   -7.3050   -8.6260 o         1 7RO     -0.457100
     33 N4          3.0190   -9.2250   -7.3210 n4        1 7RO     -0.595200
     34 C15         4.3210   -9.9050   -7.5220 c3        1 7RO      0.085100
     35 C14         2.0020   -9.7190   -8.2790 c3        1 7RO      0.085100
     36 H241        0.3790   -0.6070    3.9640 hc        1 7RO      0.058144
     37 H242        1.9840   -0.3690    3.1470 hc        1 7RO      0.058144
     38 H243        0.8380   -1.6460    2.5470 hc        1 7RO      0.058144
     39 H231       -0.5250    1.7340    3.5650 hc        1 7RO      0.058144
     40 H232       -0.0990    2.5510    1.9930 hc        1 7RO      0.058144
     41 H233        1.2160    2.0460    3.1350 hc        1 7RO      0.058144
     42 H221       -1.7920   -0.0860    2.4740 hc        1 7RO      0.058144
     43 H222       -1.0650   -1.0310    1.1050 hc        1 7RO      0.058144
     44 H223       -1.5160    0.7130    0.8660 hc        1 7RO      0.058144
     45 H5          4.2820    1.8750   -2.9380 ha        1 7RO      0.173000
     46 H1          0.1670    2.4230   -0.4990 h4        1 7RO      0.053100
     47 H2          4.3370    3.7460   -0.7890 h4        1 7RO      0.184000
     48 HC1         2.4250    6.7490   -0.5560 h1        1 7RO      0.066367
     49 HC2         2.6480    6.2470    1.1880 h1        1 7RO      0.066367
     50 HC3         4.0220    6.0330   -0.0080 h1        1 7RO      0.066367
     51 H18         2.1010   -2.9130   -1.1670 ha        1 7RO      0.190000
     52 H7          5.2690   -0.6570   -4.3300 h4        1 7RO      0.041100
     53 H3          3.7070   -4.9300   -1.9470 hn        1 7RO      0.466800
     54 H17         2.9520   -3.6520   -5.3570 ha        1 7RO      0.183000
     55 H16         2.8340   -5.1120   -7.3300 ha        1 7RO      0.167000
     56 H11         3.8620   -8.5530   -4.8670 ha        1 7RO      0.130000
     57 H151        4.1880  -11.0160   -7.4250 hx        1 7RO      0.104700
     58 H152        5.0510   -9.5420   -6.7490 hx        1 7RO      0.104700
     59 H153        4.7090   -9.6620   -8.5480 hx        1 7RO      0.104700
     60 H141        1.8970  -10.8320   -8.1750 hx        1 7RO      0.104700
     61 H142        1.0200   -9.2200   -8.0620 hx        1 7RO      0.104700
     62 H143        2.3200   -9.4650   -9.3270 hx        1 7RO      0.104700
     63 H41         2.6860   -9.4160   -6.3690 hn        1 7RO      0.449800
@<TRIPOS>BOND
     1    1    2 2   
     2    2    3 1   
     3    2    8 1   
     4    3    4 1   
     5    4    5 1   
     6    4    6 1   
     7    4    7 1   
     8    5   36 1   
     9    5   37 1   
    10    5   38 1   
    11    6   39 1   
    12    6   40 1   
    13    6   41 1   
    14    7   42 1   
    15    7   43 1   
    16    7   44 1   
    17    8    9 1   
    18    8   16 1   
    19    9   10 1   
    20    9   18 2   
    21   10   11 1   
    22   10   13 2   
    23   11   12 2   
    24   11   46 1   
    25   12   14 1   
    26   13   14 1   
    27   13   47 1   
    28   14   15 1   
    29   15   48 1   
    30   15   49 1   
    31   15   50 1   
    32   16   17 ar  
    33   16   19 ar  
    34   17   18 1   
    35   17   22 ar  
    36   18   45 1   
    37   19   20 ar  
    38   19   51 1   
    39   20   21 ar  
    40   20   23 1   
    41   21   22 ar  
    42   22   52 1   
    43   23   24 1   
    44   23   53 1   
    45   24   25 ar  
    46   24   29 ar  
    47   25   26 ar  
    48   25   54 1   
    49   26   27 ar  
    50   26   55 1   
    51   27   28 ar  
    52   27   31 1   
    53   28   29 ar  
    54   28   56 1   
    55   29   30 1   
    56   31   32 2   
    57   31   33 1   
    58   33   34 1   
    59   33   35 1   
    60   33   63 1   
    61   34   57 1   
    62   34   58 1   
    63   34   59 1   
    64   35   60 1   
    65   35   61 1   
    66   35   62 1   
@<TRIPOS>SUBSTRUCTURE
     1 7RO         1 TEMP              0 ****  ****    0 ROOT
