@<TRIPOS>MOLECULE
7RO
   64    67     1     0     0
SMALL
bcc


@<TRIPOS>ATOM
      1 O2          0.8620   -1.5730    0.2610 o         1 7RO     -0.567000
      2 C20         1.4080   -0.4680    0.1370 c         1 7RO      0.780100
      3 O1          1.1290    0.5930    0.9230 os        1 7RO     -0.405900
      4 C21         0.1260    0.4530    1.9970 c3        1 7RO      0.185800
      5 C24         0.5440   -0.6270    2.9750 c3        1 7RO     -0.120767
      6 C23         0.1790    1.8310    2.6480 c3        1 7RO     -0.120767
      7 C22        -1.2370    0.1860    1.3880 c3        1 7RO     -0.120767
      8 N5          2.4040   -0.2330   -0.8490 n         1 7RO     -0.221200
      9 C4          3.0260    0.9690   -1.2770 cc        1 7RO      0.220400
     10 C3          2.6420    2.2890   -0.9210 cc        1 7RO     -0.304100
     11 C1          1.3350    2.8300   -0.5980 cc        1 7RO      0.361200
     12 N1          1.4210    4.1640   -0.3970 nd        1 7RO     -0.488800
     13 C2          3.5030    3.4200   -0.8950 cd        1 7RO     -0.072300
     14 N           2.7140    4.5110   -0.5690 na        1 7RO      0.121400
     15 C           3.1990    5.8690   -0.4290 c3        1 7RO      0.025600
     16 C19         3.0550   -1.3040   -1.4960 ca        1 7RO     -0.005400
     17 C6          4.1120   -0.7560   -2.3290 ca        1 7RO     -0.120100
     18 C5          4.0730    0.6570   -2.1750 cd        1 7RO     -0.205200
     19 C18         2.8340   -2.6840   -1.4490 ca        1 7RO     -0.153300
     20 C8          3.7010   -3.4580   -2.2470 ca        1 7RO      0.361200
     21 N2          4.7020   -2.9760   -3.0550 nb        1 7RO     -0.664000
     22 C7          4.8940   -1.6600   -3.0850 ca        1 7RO      0.453200
     23 N3          3.5650   -4.9360   -2.1870 n4        1 7RO     -0.609100
     24 C9          3.3980   -5.5600   -3.5050 ca        1 7RO      0.042600
     25 C17         2.5670   -4.9600   -4.4640 ca        1 7RO     -0.064000
     26 C16         2.4210   -5.5440   -5.7220 ca        1 7RO     -0.040000
     27 C12         3.1030   -6.7300   -6.0300 ca        1 7RO     -0.147600
     28 C11         3.9370   -7.3310   -5.0820 ca        1 7RO     -0.081000
     29 C10         4.0880   -6.7550   -3.8170 ca        1 7RO      0.021400
     30 CL          5.1030   -7.4980   -2.6910 cl        1 7RO      0.011600
     31 C13         2.9560   -7.2490   -7.4040 c         1 7RO      0.555700
     32 O           2.8010   -6.5820   -8.4160 o         1 7RO     -0.377100
     33 N4          2.9750   -8.7590   -7.5810 n4        1 7RO     -0.586200
     34 C15         4.2090   -9.1680   -8.3070 c3        1 7RO      0.080600
     35 C14         1.7580   -9.2060   -8.3140 c3        1 7RO      0.080600
     36 H241       -0.0870   -0.5510    3.8930 hc        1 7RO      0.063811
     37 H242        0.4090   -1.6420    2.5300 hc        1 7RO      0.063811
     38 H243        1.6150   -0.4940    3.2630 hc        1 7RO      0.063811
     39 H231        0.0200    2.6290    1.8830 hc        1 7RO      0.063811
     40 H232        1.1700    1.9930    3.1350 hc        1 7RO      0.063811
     41 H233       -0.6260    1.8930    3.4190 hc        1 7RO      0.063811
     42 H221       -1.2660   -0.8220    0.9060 hc        1 7RO      0.063811
     43 H222       -2.0110    0.2210    2.1920 hc        1 7RO      0.063811
     44 H223       -1.4770    0.9630    0.6230 hc        1 7RO      0.063811
     45 H5          4.7140    1.3850   -2.6680 ha        1 7RO      0.188000
     46 H1          0.3900    2.2900   -0.5100 h4        1 7RO      0.057100
     47 H2          4.5770    3.4920   -1.0710 h4        1 7RO      0.192000
     48 HC1         2.9940    6.2390    0.6120 h1        1 7RO      0.077700
     49 HC2         4.3020    5.8790   -0.6250 h1        1 7RO      0.077700
     50 HC3         2.6750    6.5370   -1.1650 h1        1 7RO      0.077700
     51 H18         2.0350   -3.1090   -0.8180 ha        1 7RO      0.195000
     52 H7          5.7130   -1.3020   -3.7390 h4        1 7RO      0.064100
     53 H3          2.7440   -5.1610   -1.6060 hn        1 7RO      0.475300
     54 H17         2.0400   -4.0120   -4.2440 ha        1 7RO      0.199000
     55 H16         1.7810   -5.0540   -6.4800 ha        1 7RO      0.196000
     56 H11         4.5180   -8.2410   -5.3150 ha        1 7RO      0.168000
     57 H151        5.1100   -8.8680   -7.7080 hx        1 7RO      0.116700
     58 H152        4.2340   -8.6590   -9.3110 hx        1 7RO      0.116700
     59 H153        4.2030  -10.2820   -8.4540 hx        1 7RO      0.116700
     60 H141        0.8460   -8.9400   -7.7160 hx        1 7RO      0.116700
     61 H142        1.8030  -10.3190   -8.4630 hx        1 7RO      0.116700
     62 H143        1.7170   -8.6940   -9.3160 hx        1 7RO      0.116700
     63 H32         4.4150   -5.3160   -1.7340 hn        1 7RO      0.475300
     64 H41         2.9750   -9.2010   -6.6520 hn        1 7RO      0.453800
@<TRIPOS>BOND
     1    1    2 2   
     2    2    3 1   
     3    2    8 1   
     4    3    4 1   
     5    4    5 1   
     6    4    6 1   
     7    4    7 1   
     8    5   36 1   
     9    5   37 1   
    10    5   38 1   
    11    6   39 1   
    12    6   40 1   
    13    6   41 1   
    14    7   42 1   
    15    7   43 1   
    16    7   44 1   
    17    8    9 1   
    18    8   16 1   
    19    9   10 1   
    20    9   18 2   
    21   10   11 1   
    22   10   13 2   
    23   11   12 2   
    24   11   46 1   
    25   12   14 1   
    26   13   14 1   
    27   13   47 1   
    28   14   15 1   
    29   15   48 1   
    30   15   49 1   
    31   15   50 1   
    32   16   17 ar  
    33   16   19 ar  
    34   17   18 1   
    35   17   22 ar  
    36   18   45 1   
    37   19   20 ar  
    38   19   51 1   
    39   20   21 ar  
    40   20   23 1   
    41   21   22 ar  
    42   22   52 1   
    43   23   24 1   
    44   23   53 1   
    45   23   63 1   
    46   24   25 ar  
    47   24   29 ar  
    48   25   26 ar  
    49   25   54 1   
    50   26   27 ar  
    51   26   55 1   
    52   27   28 ar  
    53   27   31 1   
    54   28   29 ar  
    55   28   56 1   
    56   29   30 1   
    57   31   32 2   
    58   31   33 1   
    59   33   34 1   
    60   33   35 1   
    61   33   64 1   
    62   34   57 1   
    63   34   58 1   
    64   34   59 1   
    65   35   60 1   
    66   35   61 1   
    67   35   62 1   
@<TRIPOS>SUBSTRUCTURE
     1 7RO         1 TEMP              0 ****  ****    0 ROOT
