@<TRIPOS>MOLECULE
7RP
   33    28     1     0     0
SMALL
bcc


@<TRIPOS>ATOM
      1 C8          1.1840   -1.5770   -0.8370 c1        1 7RP      0.005500
      2 N9          2.4660   -1.9870   -1.0060 n2        1 7RP     -0.173000
      3 C4          3.1800   -1.6050    0.0930 c1        1 7RP      0.005500
      4 C5          2.3380   -0.9630    0.9350 c1        1 7RP     -0.126000
      5 N7          1.1000   -0.9440    0.3590 n1        1 7RP     -0.144500
      6 N3          4.4950   -1.7580    0.4280 n1        1 7RP     -0.144500
      7 C2          4.9610   -1.2620    1.6140 c1        1 7RP     -0.082000
      8 N1          4.1110   -0.6120    2.4670 n1        1 7RP     -0.198000
      9 C6          2.8140   -0.4590    2.1390 c1        1 7RP     -0.029000
     10 P          -2.7940    3.1580   -3.1410 p3        1 7RP      2.525000
     11 O1P        -4.0840    2.5070   -3.5880 o         1 7RP     -1.243000
     12 O2P        -3.1030    4.2690   -2.1620 os        1 7RP     -1.251000
     13 O3P        -2.0750    3.7310   -4.3430 o         1 7RP     -1.243000
     14 O5'        -1.8680    2.0720   -2.4370 os        1 7RP     -0.723000
     15 C5'        -2.3920    1.3480   -1.3340 c3        1 7RP      0.075000
     16 C4'        -1.3240    0.3510   -0.8160 c3        1 7RP     -0.058000
     17 O4'        -0.2700    0.9910   -0.4110 os        1 7RP     -0.281000
     18 C3'        -1.8470   -0.3920    0.4310 c3        1 7RP     -0.023000
     19 O3'        -2.0880   -1.6870    0.1360 oh        1 7RP     -0.429000
     20 C2'        -0.7140   -0.2820    1.4850 c3        1 7RP      0.000000
     21 O2'        -0.4190   -1.6260    2.0690 oh        1 7RP     -0.338000
     22 C1'         0.3100    0.1550    0.8310 c2        1 7RP      0.120000
     23 H8          0.9510   -1.9950   -1.6960 DU        1 7RP      0.256000
     24 H2          5.9140   -1.2700    1.8520 ha        1 7RP      0.164000
     25 H6          2.5870   -0.2210    3.0640 ha        1 7RP      0.159000
     26 H5'1       -3.1930    0.8530   -1.6170 h1        1 7RP      0.049500
     27 H5'2       -2.6310    1.9750   -0.6150 h1        1 7RP      0.049500
     28 H4'        -1.0850   -0.2900   -1.5210 h1        1 7RP      0.097000
     29 H3'        -2.6650    0.0390    0.7650 h1        1 7RP      0.215000
     30 HO'3       -2.9150   -1.9020    0.3980 ho        1 7RP      0.312000
     31 H2'        -0.9650    0.3530    2.1940 h1        1 7RP      0.120000
     32 HO'2       -0.8330   -1.7060    2.8560 ho        1 7RP      0.228000
     33 H1'         0.8530    0.7390    1.4060 h4        1 7RP      0.107000
@<TRIPOS>BOND
     1    1    2 1   
     2    1    5 1   
     3    2    3 1   
     4    3    6 1   
     5    4    9 1   
     6    7    8 1   
     7    7   24 1   
     8    9   25 1   
     9   10   11 1   
    10   10   13 1   
    11   10   14 1   
    12   14   15 1   
    13   15   16 1   
    14   15   26 1   
    15   15   27 1   
    16   16   17 1   
    17   16   18 1   
    18   16   28 1   
    19   17   22 1   
    20   18   19 1   
    21   18   20 1   
    22   18   29 1   
    23   19   30 1   
    24   20   21 1   
    25   20   22 1   
    26   20   31 1   
    27   21   32 1   
    28   22   33 1   
@<TRIPOS>SUBSTRUCTURE
     1 7RP         1 TEMP              0 ****  ****    0 ROOT
