@<TRIPOS>MOLECULE
7RP
   33    35     1     0     0
SMALL
bcc


@<TRIPOS>ATOM
      1 C8          0.4290   -0.8710    0.3430 cc        1 7RP      0.474700
      2 N9          1.7720   -0.7590    0.4340 nd        1 7RP     -0.679700
      3 C4          2.0110   -0.2780    1.7410 ca        1 7RP      0.539300
      4 C5          0.7060   -0.1090    2.4240 ca        1 7RP     -0.301800
      5 N7         -0.2630   -0.5080    1.5100 na        1 7RP     -0.132300
      6 N3          3.1790    0.0160    2.3800 nb        1 7RP     -0.657000
      7 C2          3.0210    0.4610    3.6470 ca        1 7RP      0.580900
      8 N1          1.8690    0.6520    4.3610 nb        1 7RP     -0.724000
      9 C6          0.7110    0.3670    3.7480 ca        1 7RP      0.436200
     10 P          -5.5140   -0.9090   -2.3060 p5        1 7RP      1.332900
     11 O1P        -6.2940   -1.1090   -1.0360 o         1 7RP     -0.926167
     12 O2P        -6.2430   -0.4930   -3.5430 o         1 7RP     -0.926167
     13 O3P        -4.3910   -1.9190   -2.4470 o         1 7RP     -0.926167
     14 O5'        -4.5470    0.4880   -1.9060 os        1 7RP     -0.561200
     15 C5'        -4.2070    0.6370   -0.5910 c3        1 7RP      0.225400
     16 C4'        -2.8160    0.0130   -0.3070 c3        1 7RP      0.053100
     17 O4'        -2.3030    0.5480    0.9420 os        1 7RP     -0.424600
     18 C3'        -2.9050   -1.5190   -0.1570 c3        1 7RP      0.088100
     19 O3'        -2.0340   -2.1610   -1.0640 oh        1 7RP     -0.701800
     20 C2'        -2.4370   -1.8110    1.2800 c3        1 7RP      0.111100
     21 O2'        -1.6530   -2.9640    1.4460 oh        1 7RP     -0.610800
     22 C1'        -1.7090   -0.4880    1.7070 c3        1 7RP      0.211800
     23 H8         -0.1340   -1.2220   -0.5480 h5        1 7RP      0.126800
     24 H2          3.9580    0.7070    4.1850 h5        1 7RP      0.027100
     25 H6         -0.2200    0.5220    4.3190 h4        1 7RP      0.022100
     26 H5'1       -4.1250    1.7370   -0.3470 h1        1 7RP      0.010200
     27 H5'2       -4.9690    0.1590    0.0870 h1        1 7RP      0.010200
     28 H4'        -2.0880    0.2930   -1.1130 h1        1 7RP      0.057700
     29 H3'        -3.9770   -1.8520   -0.3640 h1        1 7RP      0.175700
     30 HO'3       -2.5770   -2.3090   -1.8760 ho        1 7RP      0.513000
     31 H2'        -3.3200   -1.9350    1.9640 h1        1 7RP      0.080700
     32 HO'2       -1.2920   -3.2040    0.5790 ho        1 7RP      0.429000
     33 H1'        -1.8870   -0.2290    2.7890 h2        1 7RP      0.067700
@<TRIPOS>BOND
     1    1    2 2   
     2    1    5 1   
     3    1   23 1   
     4    2    3 1   
     5    3    4 ar  
     6    3    6 ar  
     7    4    5 1   
     8    4    9 ar  
     9    5   22 1   
    10    6    7 ar  
    11    7    8 ar  
    12    7   24 1   
    13    8    9 ar  
    14    9   25 1   
    15   10   11 1   
    16   10   12 1   
    17   10   13 1   
    18   10   14 1   
    19   14   15 1   
    20   15   16 1   
    21   15   26 1   
    22   15   27 1   
    23   16   17 1   
    24   16   18 1   
    25   16   28 1   
    26   17   22 1   
    27   18   19 1   
    28   18   20 1   
    29   18   29 1   
    30   19   30 1   
    31   20   21 1   
    32   20   22 1   
    33   20   31 1   
    34   21   32 1   
    35   22   33 1   
@<TRIPOS>SUBSTRUCTURE
     1 7RP         1 TEMP              0 ****  ****    0 ROOT
