@<TRIPOS>MOLECULE
7RP
   33    35     1     0     0
SMALL
bcc


@<TRIPOS>ATOM
      1 C8         -0.5460    1.2440    1.9920 cc        1 7RP      0.474700
      2 N9         -1.2090    1.6910    3.0820 nd        1 7RP     -0.679700
      3 C4         -1.0280    0.6840    4.0570 ca        1 7RP      0.539300
      4 C5         -0.2060   -0.3990    3.4650 ca        1 7RP     -0.301800
      5 N7          0.0860    0.0030    2.1670 na        1 7RP     -0.132300
      6 N3         -1.4710    0.6030    5.3440 nb        1 7RP     -0.657000
      7 C2         -1.0980   -0.5250    5.9890 ca        1 7RP      0.580900
      8 N1         -0.3490   -1.5770    5.5330 nb        1 7RP     -0.724000
      9 C6          0.0960   -1.5120    4.2700 ca        1 7RP      0.436200
     10 P           0.9370    0.3090   -4.2740 p5        1 7RP      1.332900
     11 O1P         2.0740   -0.6520   -4.0660 o         1 7RP     -0.926167
     12 O2P         0.3590    0.4560   -5.6450 o         1 7RP     -0.926167
     13 O3P         1.0860    1.5580   -3.4250 o         1 7RP     -0.926167
     14 O5'        -0.3400   -0.4600   -3.3670 os        1 7RP     -0.561200
     15 C5'         0.0410   -1.2030   -2.2860 c3        1 7RP      0.225400
     16 C4'        -0.0080   -0.3550   -0.9890 c3        1 7RP      0.053100
     17 O4'        -0.0210   -1.2460    0.1590 os        1 7RP     -0.424600
     18 C3'         1.2330    0.5510   -0.8610 c3        1 7RP      0.088100
     19 O3'         0.8510    1.9030   -0.7140 oh        1 7RP     -0.701800
     20 C2'         1.9400    0.0890    0.4260 c3        1 7RP      0.111100
     21 O2'         2.5040    1.1040    1.2140 oh        1 7RP     -0.610800
     22 C1'         0.8410   -0.7500    1.1690 c3        1 7RP      0.211800
     23 H8         -0.4680    1.7740    1.0190 h5        1 7RP      0.126800
     24 H2         -1.4490   -0.6120    7.0360 h5        1 7RP      0.027100
     25 H6          0.6970   -2.3590    3.8980 h4        1 7RP      0.022100
     26 H5'1        1.0830   -1.6140   -2.4170 h1        1 7RP      0.010200
     27 H5'2       -0.6830   -2.0570   -2.1430 h1        1 7RP      0.010200
     28 H4'        -0.9500    0.2510   -0.9510 h1        1 7RP      0.057700
     29 H3'         1.8740    0.4410   -1.7980 h1        1 7RP      0.175700
     30 HO'3        0.8110    2.2570   -1.6360 ho        1 7RP      0.513000
     31 H2'         2.7810   -0.6170    0.1810 h1        1 7RP      0.080700
     32 HO'2        2.0840    1.9410    0.9650 ho        1 7RP      0.429000
     33 H1'         1.2690   -1.6490    1.6950 h2        1 7RP      0.067700
@<TRIPOS>BOND
     1    1    2 2   
     2    1    5 1   
     3    1   23 1   
     4    2    3 1   
     5    3    4 ar  
     6    3    6 ar  
     7    4    5 1   
     8    4    9 ar  
     9    5   22 1   
    10    6    7 ar  
    11    7    8 ar  
    12    7   24 1   
    13    8    9 ar  
    14    9   25 1   
    15   10   11 1   
    16   10   12 1   
    17   10   13 1   
    18   10   14 1   
    19   14   15 1   
    20   15   16 1   
    21   15   26 1   
    22   15   27 1   
    23   16   17 1   
    24   16   18 1   
    25   16   28 1   
    26   17   22 1   
    27   18   19 1   
    28   18   20 1   
    29   18   29 1   
    30   19   30 1   
    31   20   21 1   
    32   20   22 1   
    33   20   31 1   
    34   21   32 1   
    35   22   33 1   
@<TRIPOS>SUBSTRUCTURE
     1 7RP         1 TEMP              0 ****  ****    0 ROOT
