@<TRIPOS>MOLECULE
7RP
   33    35     1     0     0
SMALL
bcc


@<TRIPOS>ATOM
      1 C8          0.4300   -0.7990    0.3040 cc        1 7RP      0.474700
      2 N9          1.7710   -0.6590    0.3850 nd        1 7RP     -0.679700
      3 C4          2.0160   -0.2510    1.7160 ca        1 7RP      0.539300
      4 C5          0.7160   -0.1570    2.4230 ca        1 7RP     -0.301800
      5 N7         -0.2540   -0.5240    1.4990 na        1 7RP     -0.132300
      6 N3          3.1840    0.0340    2.3580 nb        1 7RP     -0.657000
      7 C2          3.0330    0.3970    3.6510 ca        1 7RP      0.580900
      8 N1          1.8860    0.5160    4.3890 nb        1 7RP     -0.724000
      9 C6          0.7270    0.2380    3.7730 ca        1 7RP      0.436200
     10 P          -5.5450   -0.8260   -2.2730 p5        1 7RP      1.332900
     11 O1P        -6.3030   -1.1220   -1.0090 o         1 7RP     -0.926167
     12 O2P        -6.3000   -0.3540   -3.4730 o         1 7RP     -0.926167
     13 O3P        -4.3990   -1.7970   -2.4880 o         1 7RP     -0.926167
     14 O5'        -4.6070    0.5680   -1.8000 os        1 7RP     -0.561200
     15 C5'        -4.2530    0.6460   -0.4830 c3        1 7RP      0.225400
     16 C4'        -2.8430    0.0420   -0.2540 c3        1 7RP      0.053100
     17 O4'        -2.3280    0.5120    1.0200 os        1 7RP     -0.424600
     18 C3'        -2.8930   -1.4980   -0.1960 c3        1 7RP      0.088100
     19 O3'        -2.0180   -2.0630   -1.1510 oh        1 7RP     -0.701800
     20 C2'        -2.3980   -1.8660    1.2150 c3        1 7RP      0.111100
     21 O2'        -1.5850   -3.0060    1.3020 oh        1 7RP     -0.610800
     22 C1'        -1.6980   -0.5520    1.7130 c3        1 7RP      0.211800
     23 H8         -0.1360   -1.1090   -0.6010 h5        1 7RP      0.126800
     24 H2          3.9700    0.6340    4.1920 h5        1 7RP      0.027100
     25 H6         -0.2000    0.3360    4.3640 h4        1 7RP      0.022100
     26 H5'1       -4.9940    0.1080    0.1740 h1        1 7RP      0.010200
     27 H5'2       -4.1950    1.7310   -0.1730 h1        1 7RP      0.010200
     28 H4'        -2.1340    0.3880   -1.0490 h1        1 7RP      0.057700
     29 H3'        -3.9590   -1.8450   -0.4100 h1        1 7RP      0.175700
     30 HO'3       -2.5690   -2.1750   -1.9630 ho        1 7RP      0.513000
     31 H2'        -3.2700   -2.0530    1.9010 h1        1 7RP      0.080700
     32 HO'2       -1.2290   -3.1840    0.4180 ho        1 7RP      0.429000
     33 H1'        -1.8680   -0.3640    2.8110 h2        1 7RP      0.067700
@<TRIPOS>BOND
     1    1    2 2   
     2    1    5 1   
     3    1   23 1   
     4    2    3 1   
     5    3    4 ar  
     6    3    6 ar  
     7    4    5 1   
     8    4    9 ar  
     9    5   22 1   
    10    6    7 ar  
    11    7    8 ar  
    12    7   24 1   
    13    8    9 ar  
    14    9   25 1   
    15   10   11 1   
    16   10   12 1   
    17   10   13 1   
    18   10   14 1   
    19   14   15 1   
    20   15   16 1   
    21   15   26 1   
    22   15   27 1   
    23   16   17 1   
    24   16   18 1   
    25   16   28 1   
    26   17   22 1   
    27   18   19 1   
    28   18   20 1   
    29   18   29 1   
    30   19   30 1   
    31   20   21 1   
    32   20   22 1   
    33   20   31 1   
    34   21   32 1   
    35   22   33 1   
@<TRIPOS>SUBSTRUCTURE
     1 7RP         1 TEMP              0 ****  ****    0 ROOT
