@<TRIPOS>MOLECULE
7S7
   57    59     1     0     0
SMALL
bcc


@<TRIPOS>ATOM
      1 N22         0.4650   -1.3960    0.7240 nv        1 7S7     -0.931500
      2 C22         1.7190   -0.8350    0.4440 ca        1 7S7      0.655200
      3 C23         2.3270    0.0350    1.4040 ca        1 7S7     -0.286300
      4 C24         3.6060    0.5230    1.1620 ca        1 7S7      0.023700
      5 C27         4.2700    1.4350    2.1200 c3        1 7S7     -0.074800
      6 C25         4.2610    0.1480   -0.0230 ca        1 7S7     -0.272300
      7 N21         2.3640   -1.2010   -0.7060 nb        1 7S7     -0.840000
      8 C26         3.6100   -0.7110   -0.9200 ca        1 7S7      0.429600
      9 C20         4.3700   -1.1120   -2.1580 c3        1 7S7     -0.149700
     10 C17         3.5250   -1.3670   -3.3980 c3        1 7S7     -0.115000
     11 C18         3.1800   -2.8510   -3.5960 c3        1 7S7      0.105800
     12 N19         2.3210   -3.4080   -2.5170 nz        1 7S7     -0.828600
     13 C16         4.2470   -0.9460   -4.6640 ca        1 7S7      0.369600
     14 N11         3.4780   -0.4450   -5.6630 nb        1 7S7     -0.672000
     15 C15         5.6430   -1.0860   -4.7680 ca        1 7S7     -0.246300
     16 C14         6.2690   -0.6650   -5.9450 ca        1 7S7     -0.081000
     17 C13         5.4950   -0.1320   -6.9710 ca        1 7S7     -0.220300
     18 C12         4.0910   -0.0390   -6.7970 ca        1 7S7      0.432600
     19 C09         3.2660    0.5530   -7.9060 c3        1 7S7     -0.131700
     20 C08         2.2170   -0.4190   -8.4140 c3        1 7S7     -0.117700
     21 C06         1.5440    0.1000   -9.6570 ca        1 7S7      0.439600
     22 N01         0.9420    1.3090   -9.5980 nb        1 7S7     -0.740000
     23 C02         0.3370    1.7750  -10.7360 ca        1 7S7      0.647200
     24 N02        -0.1920    3.0710  -10.7390 nv        1 7S7     -0.932500
     25 C03         0.2970    1.0060  -11.9410 ca        1 7S7     -0.299300
     26 C04         0.9150   -0.2400  -11.9680 ca        1 7S7      0.002700
     27 C05         1.5550   -0.7060  -10.8100 ca        1 7S7     -0.298300
     28 C07         0.8940   -1.0730  -13.1930 c3        1 7S7     -0.064800
     29 H221       -0.0360   -0.9260    1.4460 hn        1 7S7      0.410300
     30 H222       -0.0970   -1.6450   -0.0580 hn        1 7S7      0.410300
     31 H23         1.7900    0.3090    2.3240 ha        1 7S7      0.160000
     32 H271        3.7350    1.4570    3.1010 hc        1 7S7      0.064700
     33 H272        4.2860    2.4750    1.7040 hc        1 7S7      0.064700
     34 H273        5.3270    1.1140    2.2980 hc        1 7S7      0.064700
     35 H25         5.2690    0.5300   -0.2400 ha        1 7S7      0.157000
     36 H201        4.9860   -2.0190   -1.9130 hc        1 7S7      0.075200
     37 H202        5.0900   -0.2760   -2.3870 hc        1 7S7      0.075200
     38 H17         2.5680   -0.7690   -3.3160 hc        1 7S7      0.110700
     39 H181        4.1260   -3.4630   -3.6360 hx        1 7S7      0.107700
     40 H182        2.6230   -2.9700   -4.5720 hx        1 7S7      0.107700
     41 H191        2.0290   -4.3580   -2.7500 hn        1 7S7      0.463133
     42 H192        1.4900   -2.8140   -2.3920 hn        1 7S7      0.463133
     43 H15         6.2350   -1.5100   -3.9450 ha        1 7S7      0.142000
     44 H14         7.3610   -0.7540   -6.0550 ha        1 7S7      0.155000
     45 H13         5.9580    0.2150   -7.9060 ha        1 7S7      0.164000
     46 H091        2.7660    1.4890   -7.5330 hc        1 7S7      0.079200
     47 H092        3.9460    0.8490   -8.7490 hc        1 7S7      0.079200
     48 H081        1.4420   -0.5920   -7.6210 hc        1 7S7      0.054200
     49 H082        2.6960   -1.4070   -8.6450 hc        1 7S7      0.054200
     50 H05         2.0560   -1.6810  -10.8080 ha        1 7S7      0.139000
     51 H021       -0.3260    3.5030   -9.8530 hn        1 7S7      0.410800
     52 H022       -0.9280    3.2150  -11.3900 hn        1 7S7      0.410800
     53 H03        -0.2020    1.3990  -12.8370 ha        1 7S7      0.148000
     54 H071        1.8880   -1.5580  -13.3560 hc        1 7S7      0.053033
     55 H072        0.6450   -0.4610  -14.0940 hc        1 7S7      0.053033
     56 H073        0.1230   -1.8780  -13.0910 hc        1 7S7      0.053033
     57 H193        2.8350   -3.4180   -1.6270 hn        1 7S7      0.463133
@<TRIPOS>BOND
     1    1    2 1   
     2    1   29 1   
     3    1   30 1   
     4    2    3 ar  
     5    2    7 ar  
     6    3    4 ar  
     7    3   31 1   
     8    4    5 1   
     9    4    6 ar  
    10    5   32 1   
    11    5   33 1   
    12    5   34 1   
    13    6    8 ar  
    14    6   35 1   
    15    7    8 ar  
    16    8    9 1   
    17    9   10 1   
    18    9   36 1   
    19    9   37 1   
    20   10   11 1   
    21   10   13 1   
    22   10   38 1   
    23   11   12 1   
    24   11   39 1   
    25   11   40 1   
    26   12   41 1   
    27   12   42 1   
    28   12   57 1   
    29   13   14 ar  
    30   13   15 ar  
    31   14   18 ar  
    32   15   16 ar  
    33   15   43 1   
    34   16   17 ar  
    35   16   44 1   
    36   17   18 ar  
    37   17   45 1   
    38   18   19 1   
    39   19   20 1   
    40   19   46 1   
    41   19   47 1   
    42   20   21 1   
    43   20   48 1   
    44   20   49 1   
    45   21   22 ar  
    46   21   27 ar  
    47   22   23 ar  
    48   23   24 1   
    49   23   25 ar  
    50   24   51 1   
    51   24   52 1   
    52   25   26 ar  
    53   25   53 1   
    54   26   27 ar  
    55   26   28 1   
    56   27   50 1   
    57   28   54 1   
    58   28   55 1   
    59   28   56 1   
@<TRIPOS>SUBSTRUCTURE
     1 7S7         1 TEMP              0 ****  ****    0 ROOT
