@<TRIPOS>MOLECULE
7S7
   57    59     1     0     0
SMALL
bcc


@<TRIPOS>ATOM
      1 N22         0.4680   -1.4510    0.7190 nh        1 7S7     -0.931500
      2 C22         1.7160   -0.8750    0.4430 ca        1 7S7      0.655200
      3 C23         2.3130   -0.0020    1.4060 ca        1 7S7     -0.286300
      4 C24         3.5860    0.5010    1.1670 ca        1 7S7      0.023700
      5 C27         4.2390    1.4170    2.1300 c3        1 7S7     -0.074800
      6 C25         4.2470    0.1390   -0.0190 ca        1 7S7     -0.272300
      7 N21         2.3660   -1.2290   -0.7090 nb        1 7S7     -0.840000
      8 C26         3.6070   -0.7250   -0.9200 ca        1 7S7      0.429600
      9 C20         4.3720   -1.1120   -2.1590 c3        1 7S7     -0.149700
     10 C17         3.5310   -1.3710   -3.4000 c3        1 7S7     -0.115000
     11 C18         3.2030   -2.8580   -3.6040 c3        1 7S7      0.105800
     12 N19         2.3490   -3.4290   -2.5280 n4        1 7S7     -0.828600
     13 C16         4.2490   -0.9360   -4.6640 ca        1 7S7      0.369600
     14 N11         3.4750   -0.4420   -5.6620 nb        1 7S7     -0.672000
     15 C15         5.6470   -1.0600   -4.7670 ca        1 7S7     -0.246300
     16 C14         6.2680   -0.6270   -5.9420 ca        1 7S7     -0.081000
     17 C13         5.4890   -0.0990   -6.9660 ca        1 7S7     -0.220300
     18 C12         4.0840   -0.0240   -6.7940 ca        1 7S7      0.432600
     19 C09         3.2520    0.5610   -7.9010 c3        1 7S7     -0.131700
     20 C08         2.2210   -0.4250   -8.4180 c3        1 7S7     -0.117700
     21 C06         1.5400    0.0900   -9.6580 ca        1 7S7      0.439600
     22 N01         0.9180    1.2890   -9.5920 nb        1 7S7     -0.740000
     23 C02         0.3040    1.7520  -10.7280 ca        1 7S7      0.647200
     24 N02        -0.2460    3.0380  -10.7230 nh        1 7S7     -0.931500
     25 C03         0.2770    0.9870  -11.9370 ca        1 7S7     -0.299300
     26 C04         0.9170   -0.2470  -11.9710 ca        1 7S7      0.002700
     27 C05         1.5650   -0.7090  -10.8150 ca        1 7S7     -0.298300
     28 C07         0.9300   -1.0580  -13.2100 c3        1 7S7     -0.064800
     29 H221       -0.0900   -1.7030   -0.0650 hn        1 7S7      0.410300
     30 H222       -0.0390   -0.9900    1.4420 hn        1 7S7      0.410300
     31 H23         1.7720    0.2630    2.3260 ha        1 7S7      0.160000
     32 H271        3.7030    1.4290    3.1100 hc        1 7S7      0.064700
     33 H272        5.3000    1.1070    2.3080 hc        1 7S7      0.064700
     34 H273        4.2450    2.4580    1.7180 hc        1 7S7      0.064700
     35 H25         5.2510    0.5320   -0.2330 ha        1 7S7      0.157000
     36 H201        4.9980   -2.0130   -1.9170 hc        1 7S7      0.075200
     37 H202        5.0830   -0.2670   -2.3830 hc        1 7S7      0.075200
     38 H17         2.5670   -0.7850   -3.3170 hc        1 7S7      0.111700
     39 H181        2.6480   -2.9790   -4.5810 hx        1 7S7      0.107700
     40 H182        4.1550   -3.4600   -3.6460 hx        1 7S7      0.107700
     41 H191        2.8630   -3.4370   -1.6390 hn        1 7S7      0.463133
     42 H192        2.0680   -4.3820   -2.7660 hn        1 7S7      0.463133
     43 H15         6.2430   -1.4790   -3.9460 ha        1 7S7      0.142000
     44 H14         7.3610   -0.7020   -6.0510 ha        1 7S7      0.155000
     45 H13         5.9480    0.2570   -7.9000 ha        1 7S7      0.164000
     46 H091        3.9290    0.8740   -8.7400 hc        1 7S7      0.079200
     47 H092        2.7360    1.4860   -7.5240 hc        1 7S7      0.079200
     48 H081        1.4480   -0.6170   -7.6270 hc        1 7S7      0.054200
     49 H082        2.7170   -1.4030   -8.6550 hc        1 7S7      0.054200
     50 H05         2.0800   -1.6770  -10.8180 ha        1 7S7      0.139000
     51 H021       -0.9860    3.1720  -11.3730 hn        1 7S7      0.410800
     52 H022       -0.3880    3.4620   -9.8340 hn        1 7S7      0.410800
     53 H03        -0.2320    1.3750  -12.8290 ha        1 7S7      0.148000
     54 H071        0.0600   -0.8070  -13.8650 hc        1 7S7      0.053367
     55 H072        0.8930   -2.1500  -12.9720 hc        1 7S7      0.053367
     56 H073        1.8710   -0.8560  -13.7830 hc        1 7S7      0.053367
     57 H193        1.5120   -2.8450   -2.4020 hn        1 7S7      0.463133
@<TRIPOS>BOND
     1    1    2 1   
     2    1   29 1   
     3    1   30 1   
     4    2    3 ar  
     5    2    7 ar  
     6    3    4 ar  
     7    3   31 1   
     8    4    5 1   
     9    4    6 ar  
    10    5   32 1   
    11    5   33 1   
    12    5   34 1   
    13    6    8 ar  
    14    6   35 1   
    15    7    8 ar  
    16    8    9 1   
    17    9   10 1   
    18    9   36 1   
    19    9   37 1   
    20   10   11 1   
    21   10   13 1   
    22   10   38 1   
    23   11   12 1   
    24   11   39 1   
    25   11   40 1   
    26   12   41 1   
    27   12   42 1   
    28   12   57 1   
    29   13   14 ar  
    30   13   15 ar  
    31   14   18 ar  
    32   15   16 ar  
    33   15   43 1   
    34   16   17 ar  
    35   16   44 1   
    36   17   18 ar  
    37   17   45 1   
    38   18   19 1   
    39   19   20 1   
    40   19   46 1   
    41   19   47 1   
    42   20   21 1   
    43   20   48 1   
    44   20   49 1   
    45   21   22 ar  
    46   21   27 ar  
    47   22   23 ar  
    48   23   24 1   
    49   23   25 ar  
    50   24   51 1   
    51   24   52 1   
    52   25   26 ar  
    53   25   53 1   
    54   26   27 ar  
    55   26   28 1   
    56   27   50 1   
    57   28   54 1   
    58   28   55 1   
    59   28   56 1   
@<TRIPOS>SUBSTRUCTURE
     1 7S7         1 TEMP              0 ****  ****    0 ROOT
