@<TRIPOS>MOLECULE
7S7
   59    61     1     0     0
SMALL
bcc


@<TRIPOS>ATOM
      1 N22         0.0240    0.0030    0.5110 n4        1 7S7     -0.822300
      2 C22         1.4560   -0.3730    0.4610 ca        1 7S7      0.467200
      3 C23         2.0790   -0.8170    1.6420 ca        1 7S7     -0.201300
      4 C24         3.4550   -1.1120    1.5810 ca        1 7S7      0.030700
      5 C27         4.1690   -1.5540    2.7970 c3        1 7S7     -0.096800
      6 C25         4.1190   -0.9430    0.3620 ca        1 7S7     -0.244300
      7 N21         2.0850   -0.2210   -0.7390 nb        1 7S7     -0.661000
      8 C26         3.4100   -0.4850   -0.7760 ca        1 7S7      0.416600
      9 C20         4.1890   -0.1510   -2.0220 c3        1 7S7     -0.163700
     10 C17         3.7970   -0.9120   -3.2830 c3        1 7S7     -0.115000
     11 C18         4.7020   -2.1280   -3.5380 c3        1 7S7      0.092800
     12 N19         4.5570   -3.2100   -2.5230 n4        1 7S7     -0.838600
     13 C16         3.9510   -0.0350   -4.5150 ca        1 7S7      0.360600
     14 N11         3.0410   -0.1960   -5.5110 nb        1 7S7     -0.668000
     15 C15         5.0140    0.8840   -4.5870 ca        1 7S7     -0.232300
     16 C14         5.1230    1.6940   -5.7220 ca        1 7S7     -0.066000
     17 C13         4.1850    1.5570   -6.7400 ca        1 7S7     -0.210300
     18 C12         3.1560    0.5910   -6.6040 ca        1 7S7      0.421600
     19 C09         2.1490    0.4760   -7.7180 c3        1 7S7     -0.135700
     20 C08         2.7970   -0.0730   -8.9790 c3        1 7S7     -0.138700
     21 C06         1.8760    0.0430  -10.1650 ca        1 7S7      0.452600
     22 N01         2.1640    0.9440  -11.1270 nb        1 7S7     -0.665000
     23 C02         1.3320    0.9820  -12.2080 ca        1 7S7      0.456200
     24 N02         1.6820    1.9570  -13.2670 n4        1 7S7     -0.819300
     25 C03         0.2010    0.1660  -12.3770 ca        1 7S7     -0.203300
     26 C04        -0.0890   -0.7620  -11.3570 ca        1 7S7      0.011700
     27 C05         0.7550   -0.8220  -10.2480 ca        1 7S7     -0.205300
     28 C07        -1.2620   -1.6530  -11.4900 c3        1 7S7     -0.085800
     29 H221       -0.4090   -0.0470   -0.4210 hn        1 7S7      0.481800
     30 H222       -0.4700   -0.6290    1.1520 hn        1 7S7      0.481800
     31 H23         1.5390   -0.9250    2.5980 ha        1 7S7      0.191000
     32 H271        4.3630   -0.6720    3.4640 hc        1 7S7      0.092033
     33 H272        5.1550   -2.0210    2.5480 hc        1 7S7      0.092033
     34 H273        3.5590   -2.2940    3.3760 hc        1 7S7      0.092033
     35 H25         5.2070   -1.1160    0.3060 ha        1 7S7      0.174000
     36 H201        4.0420    0.9550   -2.2100 hc        1 7S7      0.098700
     37 H202        5.2830   -0.2940   -1.8070 hc        1 7S7      0.098700
     38 H17         2.7240   -1.2480   -3.2020 hc        1 7S7      0.101700
     39 H181        5.7840   -1.8050   -3.5470 hx        1 7S7      0.126700
     40 H182        4.4500   -2.5730   -4.5470 hx        1 7S7      0.126700
     41 H191        3.6290   -3.6400   -2.5910 hn        1 7S7      0.463467
     42 H192        5.2690   -3.9350   -2.6810 hn        1 7S7      0.463467
     43 H15         5.7480    0.9750   -3.7750 ha        1 7S7      0.150000
     44 H14         5.9390    2.4300   -5.8030 ha        1 7S7      0.175000
     45 H13         4.2310    2.1890   -7.6400 ha        1 7S7      0.169000
     46 H091        1.2850   -0.1770   -7.4230 hc        1 7S7      0.075700
     47 H092        1.7420    1.5050   -7.9140 hc        1 7S7      0.075700
     48 H081        3.7650    0.4640   -9.1720 hc        1 7S7      0.081200
     49 H082        3.0400   -1.1620   -8.8410 hc        1 7S7      0.081200
     50 H05         0.5640   -1.5410   -9.4360 ha        1 7S7      0.174000
     51 H021        0.9320    1.9800  -13.9670 hn        1 7S7      0.476133
     52 H022        2.5630    1.6750  -13.7180 hn        1 7S7      0.476133
     53 H03        -0.4510    0.2230  -13.2640 ha        1 7S7      0.179000
     54 H071       -2.1750   -1.0670  -11.7690 hc        1 7S7      0.081367
     55 H072       -1.4700   -2.1990  -10.5360 hc        1 7S7      0.081367
     56 H073       -1.0780   -2.4120  -12.2950 hc        1 7S7      0.081367
     57 H223       -0.0510    0.9700    0.8590 hn        1 7S7      0.481800
     58 H193        4.6730   -2.8250   -1.5790 hn        1 7S7      0.463467
     59 H023        1.8030    2.8950  -12.8630 hn        1 7S7      0.476133
@<TRIPOS>BOND
     1    1    2 1   
     2    1   29 1   
     3    1   30 1   
     4    1   57 1   
     5    2    3 ar  
     6    2    7 ar  
     7    3    4 ar  
     8    3   31 1   
     9    4    5 1   
    10    4    6 ar  
    11    5   32 1   
    12    5   33 1   
    13    5   34 1   
    14    6    8 ar  
    15    6   35 1   
    16    7    8 ar  
    17    8    9 1   
    18    9   10 1   
    19    9   36 1   
    20    9   37 1   
    21   10   11 1   
    22   10   13 1   
    23   10   38 1   
    24   11   12 1   
    25   11   39 1   
    26   11   40 1   
    27   12   41 1   
    28   12   42 1   
    29   12   58 1   
    30   13   14 ar  
    31   13   15 ar  
    32   14   18 ar  
    33   15   16 ar  
    34   15   43 1   
    35   16   17 ar  
    36   16   44 1   
    37   17   18 ar  
    38   17   45 1   
    39   18   19 1   
    40   19   20 1   
    41   19   46 1   
    42   19   47 1   
    43   20   21 1   
    44   20   48 1   
    45   20   49 1   
    46   21   22 ar  
    47   21   27 ar  
    48   22   23 ar  
    49   23   24 1   
    50   23   25 ar  
    51   24   51 1   
    52   24   52 1   
    53   24   59 1   
    54   25   26 ar  
    55   25   53 1   
    56   26   27 ar  
    57   26   28 1   
    58   27   50 1   
    59   28   54 1   
    60   28   55 1   
    61   28   56 1   
@<TRIPOS>SUBSTRUCTURE
     1 7S7         1 TEMP              0 ****  ****    0 ROOT
