@<TRIPOS>MOLECULE
7S9
   46    45     1     0     0
SMALL
bcc


@<TRIPOS>ATOM
      1 C07        -0.2930   -0.4920    0.0360 c3        1 7S9     -0.204000
      2 C06         3.9430   -0.1460    0.1300 c2        1 7S9     -0.291000
      3 C05         2.8080   -0.3510    0.8270 c1        1 7S9      0.076000
      4 C04         0.9690   -0.4820   -0.7280 c2        1 7S9     -0.062000
      5 C03         1.6350    0.6420   -1.0440 c2        1 7S9     -0.219000
      6 C02         2.9240    0.6240   -1.8020 c2        1 7S9      0.114000
      7 N02         2.8870    1.1270   -3.0970 n3        1 7S9     -0.331000
      8 N01         4.0530    0.2390   -1.2250 n2        1 7S9     -0.206000
      9 C09         6.0470   -1.4780    0.2770 c3        1 7S9     -0.086000
     10 C16         8.7490   -0.9300    3.7220 c1        1 7S9     -0.176000
     11 C15         7.7620   -1.9800    3.5480 c2        1 7S9     -0.166000
     12 C14         7.0400   -2.2700    2.4450 c2        1 7S9     -0.035000
     13 C13         7.2680   -1.7640    1.1070 c2        1 7S9     -0.386000
     14 C12         8.4720   -1.6200    0.5680 c1        1 7S9      0.222000
     15 N11         9.7330   -0.6350    2.9330 n3        1 7S9     -0.183000
     16 C18         7.0400   -1.5530    5.8540 c3        1 7S9     -0.143000
     17 N19         7.0800   -2.0150    7.2850 n4        1 7S9      0.000000
     18 C20         7.0220   -0.8490    8.2040 c3        1 7S9     -0.193500
     19 C21         5.9870   -2.9730    7.5810 c3        1 7S9     -0.193500
     20 H071       -0.1380   -1.0340    1.0050 hc        1 7S9      0.099667
     21 H072       -1.0860   -1.0290   -0.5440 hc        1 7S9      0.099667
     22 H073       -0.6560    0.5400    0.2640 hc        1 7S9      0.099667
     23 H05         1.3320   -1.4740   -1.0550 ha        1 7S9      0.136000
     24 H081        5.0210   -0.5550    1.9510 hc        1 7S9      0.091000
     25 H082        5.8350    0.6140    0.8280 hc        1 7S9      0.091000
     26 H03         1.2800    1.6450   -0.7540 ha        1 7S9      0.165000
     27 H021        3.6930    0.9980   -3.6660 hn        1 7S9      0.217500
     28 H022        2.0120    1.0520   -3.5590 hn        1 7S9      0.217500
     29 H091        5.4240   -2.4110    0.2330 hc        1 7S9      0.113000
     30 H092        6.3440   -1.2220   -0.7750 hc        1 7S9      0.113000
     31 H16        10.3040    0.1490    3.1680 hn        1 7S9      0.218500
     32 H14         6.1600   -2.9390    2.5190 ha        1 7S9      0.140000
     33 H171        8.3400   -3.2010    5.2050 hc        1 7S9      0.099000
     34 H172        6.5980   -3.3790    4.7280 hc        1 7S9      0.099000
     35 H12         9.9690   -1.0890    2.0660 hn        1 7S9      0.218500
     36 H181        5.9990   -1.1840    5.6400 hx        1 7S9      0.167000
     37 H182        7.7660   -0.6840    5.7460 hx        1 7S9      0.167000
     38 H201        7.9020   -0.1780    8.0090 hx        1 7S9      0.142667
     39 H202        6.0720   -0.2790    8.0250 hx        1 7S9      0.142667
     40 H203        7.0500   -1.2100    9.2660 hx        1 7S9      0.142667
     41 H211        7.9780   -2.4970    7.4310 hn        1 7S9      0.243000
     42 H212        4.9940   -2.4670    7.4410 hx        1 7S9      0.142667
     43 H213        6.0780   -3.3310    8.6410 hx        1 7S9      0.142667
     44 H191        6.0610   -3.8470    6.8790 hx        1 7S9      0.142667
     45 C08         5.2420   -0.3390    0.8710 c3        1 7S9     -0.075000
     46 C17         7.4320   -2.6400    4.8530 c3        1 7S9     -0.110000
@<TRIPOS>BOND
     1    1    4 1   
     2    1   20 1   
     3    1   21 1   
     4    1   22 1   
     5    2    3 1   
     6    2    8 1   
     7    2   45 1   
     8    4    5 1   
     9    4   23 1   
    10    5    6 1   
    11    5   26 1   
    12    6    7 1   
    13    6    8 1   
    14    7   27 1   
    15    7   28 1   
    16    9   13 1   
    17    9   29 1   
    18    9   30 1   
    19    9   45 1   
    20   10   11 1   
    21   10   15 1   
    22   11   12 1   
    23   11   46 1   
    24   12   13 1   
    25   12   32 1   
    26   13   14 1   
    27   15   31 1   
    28   15   35 1   
    29   16   17 1   
    30   16   36 1   
    31   16   37 1   
    32   16   46 1   
    33   17   18 1   
    34   17   19 1   
    35   17   41 1   
    36   18   38 1   
    37   18   39 1   
    38   18   40 1   
    39   19   42 1   
    40   19   43 1   
    41   19   44 1   
    42   24   45 1   
    43   25   45 1   
    44   33   46 1   
    45   34   46 1   
@<TRIPOS>SUBSTRUCTURE
     1 7S9         1 TEMP              0 ****  ****    0 ROOT
