@<TRIPOS>MOLECULE
7SB
   30    32     1     0     0
SMALL
bcc


@<TRIPOS>ATOM
      1 Cl         -0.0170   -0.3140   -0.0180 cl        1 7SB     -0.093400
      2 CAB        10.7180    5.3720    5.7370 cc        1 7SB     -0.268300
      3 CAC        11.5040    4.2470    5.8810 cd        1 7SB      0.261600
      4 CAD         9.4530    4.9320    5.1920 cc        1 7SB     -0.186300
      5 CAE         2.6660   -0.3160   -0.0900 ca        1 7SB     -0.127500
      6 CAF         1.6260    0.0060    2.0810 ca        1 7SB     -0.127500
      7 CAG         3.9230   -0.2190    0.5040 ca        1 7SB     -0.107000
      8 CAH         2.8870    0.0960    2.6670 ca        1 7SB     -0.107000
      9 CAI         5.3990    0.0430    2.5160 c3        1 7SB      0.224100
     10 NAJ         8.9100    1.1910    4.4760 na        1 7SB     -0.140400
     11 NAK         7.3680    2.7960    4.0880 nc        1 7SB     -0.695000
     12 NAL         5.5840    1.2320    3.3320 nu        1 7SB     -0.783900
     13 NAM         7.8710    0.5140    3.9900 nd        1 7SB     -0.556800
     14 OAN        10.8140    3.1110    5.4600 os        1 7SB     -0.373800
     15 CAO         1.5190   -0.2010    0.7020 ca        1 7SB      0.021400
     16 CAP         4.0400   -0.0160    1.8830 ca        1 7SB     -0.105300
     17 CAQ         8.6280    2.5680    4.5510 cd        1 7SB      0.399500
     18 CAR         9.5490    3.5610    5.0390 cd        1 7SB      0.186700
     19 CAS         6.9040    1.4880    3.7490 cc        1 7SB      0.712900
     20 HAC        12.5110    4.0480    6.2380 h4        1 7SB      0.058100
     21 HAD         8.5980    5.5600    4.9540 ha        1 7SB      0.181000
     22 HAE         2.5790   -0.4790   -1.1740 ha        1 7SB      0.148500
     23 HAF         0.7220    0.0950    2.7020 ha        1 7SB      0.148500
     24 HAG         4.8250   -0.3080   -0.1200 ha        1 7SB      0.146000
     25 HAH         2.9760    0.2540    3.7530 ha        1 7SB      0.146000
     26 HAI         6.1890   -0.0390    1.7120 h1        1 7SB      0.059200
     27 HAIA        5.5200   -0.8510    3.1970 h1        1 7SB      0.059200
     28 HNAL        5.1440    2.0470    2.9480 hn        1 7SB      0.410800
     29 HNAJ        9.7420    0.7270    4.7600 hn        1 7SB      0.336700
     30 HAB        10.9790    6.3990    5.9790 ha        1 7SB      0.169000
@<TRIPOS>BOND
     1    1   15 1   
     2    2    3 2   
     3    2    4 1   
     4    2   30 1   
     5    3   14 1   
     6    3   20 1   
     7    4   18 2   
     8    4   21 1   
     9    5    7 ar  
    10    5   15 ar  
    11    5   22 1   
    12    6    8 ar  
    13    6   15 ar  
    14    6   23 1   
    15    7   16 ar  
    16    7   24 1   
    17    8   16 ar  
    18    8   25 1   
    19    9   12 1   
    20    9   16 1   
    21    9   26 1   
    22    9   27 1   
    23   10   13 1   
    24   10   17 1   
    25   10   29 1   
    26   11   17 2   
    27   11   19 1   
    28   12   19 1   
    29   12   28 1   
    30   13   19 2   
    31   14   18 1   
    32   17   18 1   
@<TRIPOS>SUBSTRUCTURE
     1 7SB         1 TEMP              0 ****  ****    0 ROOT
