@<TRIPOS>MOLECULE
7SP
   41    43     1     0     0
SMALL
bcc


@<TRIPOS>ATOM
      1 C1         -1.6770    0.2240    1.2260 ca        1 7SP     -0.127500
      2 C2         -0.8270   -0.1490    0.1850 ca        1 7SP     -0.121000
      3 C3          0.5190   -0.4030    0.4440 ca        1 7SP     -0.127500
      4 C4          1.0170   -0.2870    1.7410 ca        1 7SP     -0.118000
      5 C5          0.1660    0.0810    2.7880 ca        1 7SP     -0.103300
      6 C6         -1.1840    0.3400    2.5250 ca        1 7SP     -0.118000
      7 C7          0.7140    0.2080    4.1850 c3        1 7SP      0.153800
      8 C8          0.0330   -0.8550    5.0980 c         1 7SP      0.634100
      9 O9         -0.4720   -0.5390    6.1840 o         1 7SP     -0.556100
     10 N10         0.1060   -2.1750    4.6170 n         1 7SP     -0.330900
     11 N11        -0.4520   -3.2040    5.2560 n2        1 7SP     -0.423300
     12 C12        -0.4700   -4.3950    4.7150 ce        1 7SP      0.366800
     13 C13        -1.0310   -5.5450    5.4330 ca        1 7SP     -0.151900
     14 C14        -0.8370   -5.6880    6.7930 ca        1 7SP     -0.049000
     15 C15        -1.3180   -6.8200    7.4810 ca        1 7SP     -0.235000
     16 C16        -1.9970   -7.8040    6.7870 ca        1 7SP      0.152100
     17 C17        -2.2350   -7.6890    5.3800 ca        1 7SP     -0.060000
     18 C18        -1.7540   -6.5390    4.7010 ca        1 7SP      0.010000
     19 C19        -2.0290   -6.4190    3.3110 ca        1 7SP     -0.137000
     20 C20        -2.7220   -7.3970    2.6390 ca        1 7SP     -0.110000
     21 C21        -3.1820   -8.5480    3.3190 ca        1 7SP     -0.145000
     22 C22        -2.9460   -8.6890    4.6650 ca        1 7SP     -0.087000
     23 O23        -2.4830   -8.9410    7.3890 oh        1 7SP     -0.497100
     24 N24         0.6230    1.5560    4.6990 n3        1 7SP     -0.880800
     25 H1         -2.7400    0.4280    1.0240 ha        1 7SP      0.138000
     26 H2         -1.2180   -0.2380   -0.8400 ha        1 7SP      0.136000
     27 H3          1.1940   -0.6900   -0.3770 ha        1 7SP      0.138000
     28 H4          2.0840   -0.4730    1.9370 ha        1 7SP      0.138500
     29 H6         -1.8590    0.6300    3.3450 ha        1 7SP      0.138500
     30 H7          1.8190   -0.0520    4.1810 h1        1 7SP      0.086700
     31 HN10        0.4270   -2.2820    3.6690 hn        1 7SP      0.299500
     32 H12        -0.0630   -4.6340    3.7090 h4        1 7SP     -0.008200
     33 H14        -0.2990   -4.9160    7.3670 ha        1 7SP      0.153000
     34 H15        -1.1470   -6.9080    8.5630 ha        1 7SP      0.138000
     35 H19        -1.6930   -5.5200    2.7730 ha        1 7SP      0.131000
     36 H20        -2.9290   -7.2940    1.5630 ha        1 7SP      0.132000
     37 H21        -3.7310   -9.3200    2.7610 ha        1 7SP      0.135000
     38 H22        -3.3010   -9.5730    5.2180 ha        1 7SP      0.150000
     39 HO23       -2.2760   -8.8900    8.3340 ho        1 7SP      0.424000
     40 HN24        0.8200    1.5620    5.6830 hn        1 7SP      0.365800
     41 HN2A       -0.2910    1.9370    4.5490 hn        1 7SP      0.365800
@<TRIPOS>BOND
     1    1    2 ar  
     2    1    6 ar  
     3    1   25 1   
     4    2    3 ar  
     5    2   26 1   
     6    3    4 ar  
     7    3   27 1   
     8    4    5 ar  
     9    4   28 1   
    10    5    6 ar  
    11    5    7 1   
    12    6   29 1   
    13    7    8 1   
    14    7   24 1   
    15    7   30 1   
    16    8    9 2   
    17    8   10 1   
    18   10   11 1   
    19   10   31 1   
    20   11   12 2   
    21   12   13 1   
    22   12   32 1   
    23   13   14 ar  
    24   13   18 ar  
    25   14   15 ar  
    26   14   33 1   
    27   15   16 ar  
    28   15   34 1   
    29   16   17 ar  
    30   16   23 1   
    31   17   18 ar  
    32   17   22 ar  
    33   18   19 ar  
    34   19   20 ar  
    35   19   35 1   
    36   20   21 ar  
    37   20   36 1   
    38   21   22 ar  
    39   21   37 1   
    40   22   38 1   
    41   23   39 1   
    42   24   40 1   
    43   24   41 1   
@<TRIPOS>SUBSTRUCTURE
     1 7SP         1 TEMP              0 ****  ****    0 ROOT
