@<TRIPOS>MOLECULE
7SP
   41    43     1     0     0
SMALL
bcc


@<TRIPOS>ATOM
      1 C1          4.5670    1.4820   -1.2930 ca        1 7SP     -0.127500
      2 C2          4.8560    0.4630   -2.2010 ca        1 7SP     -0.121000
      3 C3          4.8360   -0.8680   -1.7840 ca        1 7SP     -0.127500
      4 C4          4.5280   -1.1820   -0.4610 ca        1 7SP     -0.118000
      5 C5          4.2340   -0.1630    0.4510 ca        1 7SP     -0.102300
      6 C6          4.2580    1.1710    0.0310 ca        1 7SP     -0.118000
      7 C7          3.9070   -0.5130    1.8790 c3        1 7SP      0.153800
      8 C8          2.4380   -0.0910    2.1840 c         1 7SP      0.634100
      9 O9          2.1590    0.5890    3.1810 o         1 7SP     -0.555100
     10 N10         1.4840   -0.5970    1.2820 n         1 7SP     -0.331900
     11 N11         0.1840   -0.3170    1.3790 n2        1 7SP     -0.419300
     12 C12        -0.6530   -0.7010    0.4510 ce        1 7SP      0.363800
     13 C13        -2.0930   -0.4490    0.5790 ca        1 7SP     -0.150900
     14 C14        -2.7280   -0.6120    1.7960 ca        1 7SP     -0.055000
     15 C15        -4.1170   -0.4310    1.9170 ca        1 7SP     -0.172000
     16 C16        -4.8650   -0.0880    0.8020 ca        1 7SP      0.140100
     17 C17        -4.2500    0.0970   -0.4760 ca        1 7SP     -0.091000
     18 C18        -2.8410   -0.0700   -0.5760 ca        1 7SP      0.011000
     19 C19        -2.2170    0.1620   -1.8350 ca        1 7SP     -0.125000
     20 C20        -2.9540    0.5080   -2.9400 ca        1 7SP     -0.118000
     21 C21        -4.3590    0.6430   -2.8440 ca        1 7SP     -0.129000
     22 C22        -4.9880    0.4450   -1.6410 ca        1 7SP     -0.118000
     23 O23        -6.2190    0.0390    1.0120 oh        1 7SP     -0.496100
     24 N24         4.8690    0.0200    2.8180 n3        1 7SP     -0.880800
     25 H1          4.5860    2.5320   -1.6180 ha        1 7SP      0.137500
     26 H2          5.1020    0.7100   -3.2450 ha        1 7SP      0.136000
     27 H3          5.0700   -1.6720   -2.4970 ha        1 7SP      0.137500
     28 H4          4.5310   -2.2330   -0.1320 ha        1 7SP      0.139000
     29 H6          4.0280    1.9780    0.7440 ha        1 7SP      0.139000
     30 H7          3.9370   -1.6400    2.0070 h1        1 7SP      0.086700
     31 HN10        1.8490   -1.0260    0.4480 hn        1 7SP      0.299500
     32 H12        -0.3610   -1.2470   -0.4730 h4        1 7SP     -0.009200
     33 H14        -2.1530   -0.8860    2.6950 ha        1 7SP      0.154000
     34 H15        -4.6110   -0.5630    2.8900 ha        1 7SP      0.155000
     35 H19        -1.1230    0.0730   -1.9130 ha        1 7SP      0.133000
     36 H20        -2.4640    0.6860   -3.9090 ha        1 7SP      0.134000
     37 H21        -4.9360    0.9100   -3.7420 ha        1 7SP      0.135000
     38 H22        -6.0820    0.5500   -1.5850 ha        1 7SP      0.123000
     39 HO23       -6.6210    0.4510    0.2360 ho        1 7SP      0.421000
     40 HN24        5.0520    0.9880    2.6350 hn        1 7SP      0.366300
     41 HN2A        4.5230   -0.0740    3.7550 hn        1 7SP      0.366300
@<TRIPOS>BOND
     1    1    2 ar  
     2    1    6 ar  
     3    1   25 1   
     4    2    3 ar  
     5    2   26 1   
     6    3    4 ar  
     7    3   27 1   
     8    4    5 ar  
     9    4   28 1   
    10    5    6 ar  
    11    5    7 1   
    12    6   29 1   
    13    7    8 1   
    14    7   24 1   
    15    7   30 1   
    16    8    9 2   
    17    8   10 1   
    18   10   11 1   
    19   10   31 1   
    20   11   12 2   
    21   12   13 1   
    22   12   32 1   
    23   13   14 ar  
    24   13   18 ar  
    25   14   15 ar  
    26   14   33 1   
    27   15   16 ar  
    28   15   34 1   
    29   16   17 ar  
    30   16   23 1   
    31   17   18 ar  
    32   17   22 ar  
    33   18   19 ar  
    34   19   20 ar  
    35   19   35 1   
    36   20   21 ar  
    37   20   36 1   
    38   21   22 ar  
    39   21   37 1   
    40   22   38 1   
    41   23   39 1   
    42   24   40 1   
    43   24   41 1   
@<TRIPOS>SUBSTRUCTURE
     1 7SP         1 TEMP              0 ****  ****    0 ROOT
