@<TRIPOS>MOLECULE
7SP
   41    35     1     0     0
SMALL
bcc


@<TRIPOS>ATOM
      1 C1          1.7020    5.7550   -1.5710 c1        1 7SP     -0.130000
      2 C2          1.5850    6.1470   -0.2390 c1        1 7SP     -0.126000
      3 C3          0.8050    5.3950    0.6460 c1        1 7SP     -0.126000
      4 C4          0.1450    4.2530    0.1970 c1        1 7SP     -0.105000
      5 C5          0.2600    3.8580   -1.1330 c1        1 7SP     -0.132000
      6 C6          1.0410    4.6110   -2.0210 c2        1 7SP     -0.119000
      7 C7         -0.5960    2.7310   -1.6560 c2        1 7SP      0.015000
      8 C8         -0.0180    1.3770   -1.1780 c2        1 7SP      0.339000
      9 O9          1.2100    1.2030   -1.1460 o         1 7SP     -0.356000
     10 N10        -0.9020    0.3410   -0.7180 n         1 7SP     -0.312000
     11 N11        -1.1030    0.1640    0.6220 n2        1 7SP     -0.028000
     12 C12        -1.1440   -1.0490    1.1230 c1        1 7SP     -0.122000
     13 C13        -0.9640   -2.2830    0.1880 c1        1 7SP     -0.114000
     14 C14        -2.0520   -2.9880   -0.3240 c2        1 7SP     -0.072000
     15 C15        -2.1510   -4.3680   -0.1180 c1        1 7SP     -0.235000
     16 C16        -1.1650   -5.0370    0.5990 c1        1 7SP      0.113000
     17 C17        -0.0650   -4.3280    1.1180 c1        1 7SP     -0.059000
     18 C18         0.0380   -2.9640    0.9170 c1        1 7SP      0.011000
     19 C19         1.0990   -2.2400    1.5210 c1        1 7SP     -0.134000
     20 C20         2.0400   -2.9100    2.3200 c1        1 7SP     -0.126000
     21 C21         1.9300   -4.2970    2.5220 c1        1 7SP     -0.126000
     22 C22         0.8910   -5.0060    1.9300 c1        1 7SP     -0.089000
     23 O23        -1.2940   -6.4510    0.5300 oh        1 7SP     -0.248000
     24 N24        -0.6110    2.7660   -3.0500 n3        1 7SP     -0.331000
     25 H1          2.2650    6.2960   -2.2090 ha        1 7SP      0.135000
     26 H2          2.0450    6.9460    0.0760 ha        1 7SP      0.134500
     27 H3          0.7220    5.6740    1.5940 ha        1 7SP      0.134500
     28 H4         -0.3990    3.7310    0.8150 ha        1 7SP      0.138000
     29 H6          1.1250    4.3280   -2.9780 ha        1 7SP      0.148000
     30 H7         -1.4900    2.8290   -1.3250 h4        1 7SP      0.140000
     31 HN10       -1.2420   -0.2810   -1.3240 hn        1 7SP      0.230000
     32 H12        -1.2870   -1.1770    2.0810 ha        1 7SP      0.169000
     33 H14        -2.7470   -2.5170   -0.8300 ha        1 7SP      0.142000
     34 H15        -2.9110   -4.8620   -0.4780 ha        1 7SP      0.140000
     35 H19         1.1770   -1.2610    1.3770 ha        1 7SP      0.139000
     36 H20         2.7870   -2.4000    2.7460 ha        1 7SP      0.134500
     37 H21         2.6230   -4.7920    3.1110 ha        1 7SP      0.134500
     38 H22         0.8160   -5.9540    2.0690 ha        1 7SP      0.151000
     39 HO23       -2.0690   -6.7020    0.9020 ho        1 7SP      0.224000
     40 HN24       -1.1050    3.4810   -3.3310 hn        1 7SP      0.158000
     41 HN2A       -0.9910    1.9800   -3.3760 hn        1 7SP      0.158000
@<TRIPOS>BOND
     1    1    6 1   
     2    1   25 1   
     3    2    3 1   
     4    2   26 1   
     5    3   27 1   
     6    4    5 1   
     7    4   28 1   
     8    5    6 1   
     9    6   29 1   
    10    7    8 1   
    11    7   24 1   
    12    7   30 1   
    13    8    9 1   
    14    8   10 1   
    15   10   11 1   
    16   10   31 1   
    17   11   12 1   
    18   12   32 1   
    19   13   14 1   
    20   13   18 1   
    21   14   15 1   
    22   14   33 1   
    23   15   34 1   
    24   16   17 1   
    25   16   23 1   
    26   17   22 1   
    27   18   19 1   
    28   19   35 1   
    29   20   21 1   
    30   20   36 1   
    31   21   37 1   
    32   22   38 1   
    33   23   39 1   
    34   24   40 1   
    35   24   41 1   
@<TRIPOS>SUBSTRUCTURE
     1 7SP         1 TEMP              0 ****  ****    0 ROOT
