@<TRIPOS>MOLECULE
7T9
   43    45     1     0     0
SMALL
bcc


@<TRIPOS>ATOM
      1 C12         0.0910    0.5060    0.0220 ca        1 7T9     -0.108000
      2 C18        -2.9000    0.2350    0.2400 ca        1 7T9     -0.049000
      3 C11         1.4130    0.9660    0.0580 ca        1 7T9     -0.091000
      4 C19        -4.2010   -0.2540    0.2240 ca        1 7T9     -0.267300
      5 C14         0.0490    0.3130    2.4470 ca        1 7T9     -0.093000
      6 C23        -2.4070   -1.3350    2.0030 ca        1 7T9      0.441200
      7 C13        -0.5950    0.1780    1.1990 cp        1 7T9      0.006000
      8 C17        -1.9680   -0.3020    1.1420 cp        1 7T9     -0.204300
      9 C10         2.0410    1.0920    1.2860 ca        1 7T9     -0.128300
     10 C15         1.3550    0.7670    2.4780 ca        1 7T9     -0.111300
     11 C20        -4.5400   -1.2930    1.1310 ca        1 7T9      0.634500
     12 C9          3.4180    1.5770    1.5770 c3        1 7T9     -0.040100
     13 C16         2.2150    1.0090    3.6700 c3        1 7T9     -0.046100
     14 C8          3.6320    1.2860    3.0900 c3        1 7T9      0.120500
     15 C1          8.2980    0.2000    1.6000 c3        1 7T9     -0.100600
     16 C3          6.7470   -1.7060    1.9520 c3        1 7T9     -0.100600
     17 C2          6.8530   -0.1960    1.8870 c3        1 7T9     -0.316900
     18 N22        -3.6500   -1.8350    2.0160 nb        1 7T9     -0.679000
     19 N7          4.5690    0.1400    3.3170 n4        1 7T9     -0.717900
     20 O5          6.8060   -0.0550    4.4680 o         1 7T9     -0.551300
     21 O6          6.4050    1.9590    3.2120 o         1 7T9     -0.551300
     22 F21        -5.7990   -1.7860    1.1350 f         1 7T9     -0.203200
     23 S4          6.3920    0.5820    3.3130 s6        1 7T9      1.350900
     24 H12        -0.4150    0.3970   -0.9510 ha        1 7T9      0.155000
     25 H11         1.9330    1.2260   -0.8760 ha        1 7T9      0.149000
     26 H18        -2.6080    1.0460   -0.4450 ha        1 7T9      0.150000
     27 H19        -4.9610    0.1430   -0.4640 ha        1 7T9      0.172000
     28 H14        -0.4910    0.0740    3.3760 ha        1 7T9      0.154000
     29 H23        -1.7120   -1.8010    2.7270 h4        1 7T9      0.027100
     30 H91C        4.1800    1.0920    0.9180 hc        1 7T9      0.078200
     31 H92C        3.4880    2.6870    1.4170 hc        1 7T9      0.078200
     32 H161        1.8710    1.9250    4.2220 hc        1 7T9      0.086700
     33 H162        2.1870    0.1530    4.3890 hc        1 7T9      0.086700
     34 H8          4.0890    2.1840    3.6010 hx        1 7T9      0.124700
     35 H7          4.3510   -0.5790    2.6250 hn        1 7T9      0.456300
     36 H11C        8.4040    1.3130    1.5630 hc        1 7T9      0.080533
     37 H12C        8.9850   -0.2250    2.3730 hc        1 7T9      0.080533
     38 H13C        8.6100   -0.2080    0.6060 hc        1 7T9      0.080533
     39 H2          6.2540    0.1500    0.9910 h1        1 7T9      0.147700
     40 H31C        7.1770   -2.0940    2.9100 hc        1 7T9      0.080533
     41 H32C        5.6890   -2.0480    1.8500 hc        1 7T9      0.080533
     42 H33C        7.3270   -2.1660    1.1110 hc        1 7T9      0.080533
     43 H72         4.3470   -0.2660    4.2320 hn        1 7T9      0.456300
@<TRIPOS>BOND
     1    1    3 ar  
     2    1    7 ar  
     3    1   24 1   
     4    2    4 ar  
     5    2    8 ar  
     6    2   26 1   
     7    3    9 ar  
     8    3   25 1   
     9    4   11 ar  
    10    4   27 1   
    11    5    7 ar  
    12    5   10 ar  
    13    5   28 1   
    14    6    8 ar  
    15    6   18 ar  
    16    6   29 1   
    17    7    8 1   
    18    9   10 ar  
    19    9   12 1   
    20   10   13 1   
    21   11   18 ar  
    22   11   22 1   
    23   12   14 1   
    24   12   30 1   
    25   12   31 1   
    26   13   14 1   
    27   13   32 1   
    28   13   33 1   
    29   14   19 1   
    30   14   34 1   
    31   15   17 1   
    32   15   36 1   
    33   15   37 1   
    34   15   38 1   
    35   16   17 1   
    36   16   40 1   
    37   16   41 1   
    38   16   42 1   
    39   17   23 1   
    40   17   39 1   
    41   19   23 1   
    42   19   35 1   
    43   19   43 1   
    44   20   23 2   
    45   21   23 2   
@<TRIPOS>SUBSTRUCTURE
     1 7T9         1 TEMP              0 ****  ****    0 ROOT
