@<TRIPOS>MOLECULE
7T9
   42    44     1     0     0
SMALL
bcc


@<TRIPOS>ATOM
      1 C12         2.3420   -1.8390   -0.1110 ca        1 7T9     -0.117000
      2 C18         5.1480   -0.8820    0.4050 ca        1 7T9     -0.063000
      3 C11         1.0000   -2.2120    0.0130 ca        1 7T9     -0.114000
      4 C19         6.4740   -0.4900    0.2530 ca        1 7T9     -0.271300
      5 C14         1.7490    0.5050    0.1330 ca        1 7T9     -0.104000
      6 C23         4.5060    1.0260   -0.9210 ca        1 7T9      0.431200
      7 C13         2.7240   -0.4930   -0.0530 cp        1 7T9     -0.034000
      8 C17         4.1270   -0.1220   -0.1860 cp        1 7T9     -0.166300
      9 C10         0.0430   -1.2260    0.1970 ca        1 7T9     -0.083300
     10 C15         0.4210    0.1330    0.2570 ca        1 7T9     -0.085300
     11 C20         6.7440    0.6790   -0.5040 ca        1 7T9      0.610500
     12 C9         -1.4280   -1.3880    0.3510 c3        1 7T9     -0.056100
     13 C16        -0.7600    1.0160    0.4600 c3        1 7T9     -0.048100
     14 C8         -1.9820    0.0530    0.5840 c3        1 7T9      0.236500
     15 C1         -6.7870   -0.7570    0.5210 c3        1 7T9     -0.077100
     16 C3         -5.3220   -1.3990   -1.3750 c3        1 7T9     -0.077100
     17 C2         -5.3560   -0.8750    0.0400 c3        1 7T9     -0.272900
     18 N22         5.7710    1.4360   -1.0910 nb        1 7T9     -0.683000
     19 N7         -3.0760    0.3970   -0.2810 n3        1 7T9     -0.917100
     20 O5         -5.2010    1.5770   -0.6950 o         1 7T9     -0.647300
     21 O6         -4.6120    1.0190    1.5750 o         1 7T9     -0.647300
     22 F21         8.0290    1.0810   -0.6650 f         1 7T9     -0.220200
     23 S4         -4.5880    0.6800    0.2050 s6        1 7T9      1.441900
     24 H12         3.1060   -2.6160   -0.2640 ha        1 7T9      0.136000
     25 H11         0.7140   -3.2730   -0.0360 ha        1 7T9      0.138000
     26 H18         4.9010   -1.7810    0.9910 ha        1 7T9      0.148000
     27 H19         7.3000   -1.0560    0.7030 ha        1 7T9      0.161000
     28 H14         2.0430    1.5640    0.1880 ha        1 7T9      0.141000
     29 H23         3.7390    1.6550   -1.4130 h4        1 7T9      0.033100
     30 H91C       -1.8690   -1.8690   -0.5580 hc        1 7T9      0.062700
     31 H92C       -1.6710   -2.0330    1.2320 hc        1 7T9      0.062700
     32 H161       -0.6600    1.6190    1.3970 hc        1 7T9      0.068700
     33 H162       -0.8680    1.7320   -0.3950 hc        1 7T9      0.068700
     34 H8         -2.3610    0.1150    1.6490 h1        1 7T9      0.081700
     35 H7         -2.8170    0.4710   -1.2370 hn        1 7T9      0.450800
     36 H11C       -7.2910   -1.7520    0.4890 hc        1 7T9      0.051533
     37 H12C       -6.8120   -0.3810    1.5740 hc        1 7T9      0.051533
     38 H13C       -7.3590   -0.0530   -0.1340 hc        1 7T9      0.051533
     39 H2         -4.8420   -1.6280    0.7010 h1        1 7T9      0.103700
     40 H31C       -4.2840   -1.6900   -1.6690 hc        1 7T9      0.051533
     41 H32C       -5.9720   -2.3030   -1.4710 hc        1 7T9      0.051533
     42 H33C       -5.7010   -0.6220   -2.0860 hc        1 7T9      0.051533
@<TRIPOS>BOND
     1    1    3 ar  
     2    1    7 ar  
     3    1   24 1   
     4    2    4 ar  
     5    2    8 ar  
     6    2   26 1   
     7    3    9 ar  
     8    3   25 1   
     9    4   11 ar  
    10    4   27 1   
    11    5    7 ar  
    12    5   10 ar  
    13    5   28 1   
    14    6    8 ar  
    15    6   18 ar  
    16    6   29 1   
    17    7    8 1   
    18    9   10 ar  
    19    9   12 1   
    20   10   13 1   
    21   11   18 ar  
    22   11   22 1   
    23   12   14 1   
    24   12   30 1   
    25   12   31 1   
    26   13   14 1   
    27   13   32 1   
    28   13   33 1   
    29   14   19 1   
    30   14   34 1   
    31   15   17 1   
    32   15   36 1   
    33   15   37 1   
    34   15   38 1   
    35   16   17 1   
    36   16   40 1   
    37   16   41 1   
    38   16   42 1   
    39   17   23 1   
    40   17   39 1   
    41   19   23 1   
    42   19   35 1   
    43   20   23 2   
    44   21   23 2   
@<TRIPOS>SUBSTRUCTURE
     1 7T9         1 TEMP              0 ****  ****    0 ROOT
