@<TRIPOS>MOLECULE
7T9
   42    37     1     0     0
SMALL
bcc


@<TRIPOS>ATOM
      1 C12        -1.9170    0.9500   -3.1780 c1        1 7T9     -0.032000
      2 C18        -4.5660   -0.3550   -1.7350 c1        1 7T9     -0.032000
      3 C11        -0.5180    0.9560   -3.1620 c1        1 7T9     -0.051000
      4 C19        -5.7630   -0.4510   -1.0870 c1        1 7T9     -0.148500
      5 C14        -1.9550    0.8820   -0.7460 c1        1 7T9     -0.051000
      6 C23        -4.6890    2.0190   -1.5820 c1        1 7T9      0.349300
      7 C13        -2.6380    0.9130   -1.9660 c1        1 7T9     -0.068000
      8 C17        -4.0230    0.8720   -1.9860 c1        1 7T9     -0.068000
      9 C10         0.1620    0.9250   -1.9520 c1        1 7T9     -0.050100
     10 C15        -0.5670    0.8880   -0.7260 c1        1 7T9     -0.050100
     11 C20        -6.4270    0.6970   -0.6850 c1        1 7T9      0.144100
     12 C9          1.6730    0.8850   -1.6130 c3        1 7T9     -0.087300
     13 C16         0.4500    0.8910    0.4370 c3        1 7T9     -0.087300
     14 C8          1.8060    0.8830   -0.1420 c3        1 7T9      0.238500
     15 C1          5.0750   -1.9800    2.9210 c3        1 7T9     -0.078100
     16 C3          2.6400   -2.2110    3.2650 c3        1 7T9     -0.078100
     17 C2          3.7210   -1.8970    2.2530 c3        1 7T9     -0.271900
     18 N22        -5.8840    1.9210   -0.9350 n1        1 7T9     -0.482800
     19 N7          2.5140   -0.3100    0.2850 n3        1 7T9     -0.917100
     20 O5          2.9360    0.6140    2.6170 o         1 7T9     -0.647800
     21 O6          4.7290    0.3790    1.3280 o         1 7T9     -0.647800
     22 F21        -7.3690    0.8140    0.2600 f         1 7T9     -0.082100
     23 S4          3.4760   -0.2620    1.6140 s6        1 7T9      1.440900
     24 H12        -2.3940    0.9710   -4.0300 ha        1 7T9      0.085000
     25 H11        -0.0200    0.9810   -4.0010 ha        1 7T9      0.081500
     26 H18        -4.0980   -1.1640   -2.0190 ha        1 7T9      0.085000
     27 H19        -6.1520   -1.3290   -0.9070 ha        1 7T9      0.102500
     28 H14        -2.4550    0.8560    0.0920 ha        1 7T9      0.081500
     29 H23        -4.3010    2.8960   -1.7610 ha        1 7T9      0.113500
     30 H91C        2.0610    0.0620   -1.9720 hc        1 7T9      0.065950
     31 H92C        2.1050    1.6850   -1.9740 hc        1 7T9      0.065950
     32 H161        0.3280    1.6960    0.9810 hc        1 7T9      0.065950
     33 H162        0.3220    0.0960    0.9910 hc        1 7T9      0.065950
     34 H8          2.2940    1.6780    0.1470 h1        1 7T9      0.078700
     35 H7          2.4440   -1.0790   -0.2010 hn        1 7T9      0.450800
     36 H11C        5.1200   -1.3270    3.6510 hc        1 7T9      0.051867
     37 H12C        5.7750   -1.7850    2.2640 hc        1 7T9      0.051867
     38 H13C        5.2070   -2.8820    3.2820 hc        1 7T9      0.051867
     39 H2          3.6790   -2.5420    1.5220 h1        1 7T9      0.103700
     40 H31C        2.6500   -1.5340    3.9740 hc        1 7T9      0.051867
     41 H32C        2.8030   -3.0950    3.6540 hc        1 7T9      0.051867
     42 H33C        1.7660   -2.2060    2.8210 hc        1 7T9      0.051867
@<TRIPOS>BOND
     1    1    7 3   
     2    1   24 1   
     3    2    8 3   
     4    2   26 1   
     5    3    9 3   
     6    3   25 1   
     7    4   11 3   
     8    4   27 1   
     9    5   10 3   
    10    5   28 1   
    11    6   18 3   
    12    6   29 1   
    13    9   12 1   
    14   10   13 1   
    15   11   22 1   
    16   12   14 1   
    17   12   30 1   
    18   12   31 1   
    19   13   14 1   
    20   13   32 1   
    21   13   33 1   
    22   14   19 1   
    23   14   34 1   
    24   15   17 1   
    25   15   36 1   
    26   15   37 1   
    27   15   38 1   
    28   16   17 1   
    29   16   40 1   
    30   16   41 1   
    31   16   42 1   
    32   17   23 1   
    33   17   39 1   
    34   19   23 1   
    35   19   35 1   
    36   20   23 2   
    37   21   23 2   
@<TRIPOS>SUBSTRUCTURE
     1 7T9         1 TEMP              0 ****  ****    0 ROOT
