@<TRIPOS>MOLECULE
7T9
   43    45     1     0     0
SMALL
bcc


@<TRIPOS>ATOM
      1 C12         0.0940    0.4660    0.0110 ca        1 7T9     -0.108000
      2 C18        -2.8980    0.2130    0.2350 ca        1 7T9     -0.049000
      3 C11         1.4170    0.9220    0.0350 ca        1 7T9     -0.091000
      4 C19        -4.2020   -0.2710    0.2310 ca        1 7T9     -0.267300
      5 C14         0.0500    0.3390    2.4400 ca        1 7T9     -0.093000
      6 C23        -2.4130   -1.3110    2.0400 ca        1 7T9      0.441200
      7 C13        -0.5940    0.1730    1.1960 cp        1 7T9      0.006000
      8 C17        -1.9690   -0.3030    1.1520 cp        1 7T9     -0.204300
      9 C10         2.0450    1.0790    1.2600 ca        1 7T9     -0.128300
     10 C15         1.3580    0.7880    2.4600 ca        1 7T9     -0.111300
     11 C20        -4.5450   -1.2840    1.1660 ca        1 7T9      0.634500
     12 C9          3.4240    1.5660    1.5380 c3        1 7T9     -0.040100
     13 C16         2.2180    1.0590    3.6460 c3        1 7T9     -0.046100
     14 C8          3.6370    1.3140    3.0590 c3        1 7T9      0.120500
     15 C1          8.2970    0.1660    1.5990 c3        1 7T9     -0.100600
     16 C3          6.7380   -1.7220    2.0040 c3        1 7T9     -0.100600
     17 C2          6.8510   -0.2150    1.8970 c3        1 7T9     -0.316900
     18 N22        -3.6580   -1.8050    2.0660 nb        1 7T9     -0.679000
     19 N7          4.5680    0.1710    3.3170 ny        1 7T9     -0.717900
     20 O5          6.8050   -0.0020    4.4730 o         1 7T9     -0.551300
     21 O6          6.4120    1.9780    3.1610 o         1 7T9     -0.551300
     22 F21        -5.8060   -1.7720    1.1820 f         1 7T9     -0.203200
     23 S4          6.3940    0.6050    3.3000 s6        1 7T9      1.350900
     24 H12        -0.4120    0.3330   -0.9590 ha        1 7T9      0.155000
     25 H11         1.9390    1.1540   -0.9050 ha        1 7T9      0.149000
     26 H18        -2.6030    1.0040   -0.4720 ha        1 7T9      0.150000
     27 H19        -4.9600    0.1100   -0.4670 ha        1 7T9      0.172000
     28 H14        -0.4910    0.1270    3.3750 ha        1 7T9      0.154000
     29 H23        -1.7190   -1.7600    2.7760 h4        1 7T9      0.027100
     30 H91C        4.1850    1.0600    0.8930 hc        1 7T9      0.078200
     31 H92C        3.4990    2.6700    1.3480 hc        1 7T9      0.078200
     32 H161        1.8780    1.9910    4.1720 hc        1 7T9      0.086700
     33 H162        2.1860    0.2230    4.3880 hc        1 7T9      0.086700
     34 H8          4.0970    2.2240    3.5460 hx        1 7T9      0.124700
     35 H7          4.3450   -0.2090    4.2430 hn        1 7T9      0.456300
     36 H11C        8.4090    1.2780    1.5320 hc        1 7T9      0.080533
     37 H12C        8.9820   -0.2400    2.3850 hc        1 7T9      0.080533
     38 H13C        8.6080   -0.2710    0.6170 hc        1 7T9      0.080533
     39 H2          6.2530    0.1080    0.9920 h1        1 7T9      0.147700
     40 H31C        7.3160   -2.2080    1.1760 hc        1 7T9      0.080533
     41 H32C        5.6780   -2.0620    1.9120 hc        1 7T9      0.080533
     42 H33C        7.1670   -2.0850    2.9730 hc        1 7T9      0.080533
     43 H72         4.3480   -0.5660    2.6450 hn        1 7T9      0.456300
@<TRIPOS>BOND
     1    1    3 ar  
     2    1    7 ar  
     3    1   24 1   
     4    2    4 ar  
     5    2    8 ar  
     6    2   26 1   
     7    3    9 ar  
     8    3   25 1   
     9    4   11 ar  
    10    4   27 1   
    11    5    7 ar  
    12    5   10 ar  
    13    5   28 1   
    14    6    8 ar  
    15    6   18 ar  
    16    6   29 1   
    17    7    8 1   
    18    9   10 ar  
    19    9   12 1   
    20   10   13 1   
    21   11   18 ar  
    22   11   22 1   
    23   12   14 1   
    24   12   30 1   
    25   12   31 1   
    26   13   14 1   
    27   13   32 1   
    28   13   33 1   
    29   14   19 1   
    30   14   34 1   
    31   15   17 1   
    32   15   36 1   
    33   15   37 1   
    34   15   38 1   
    35   16   17 1   
    36   16   40 1   
    37   16   41 1   
    38   16   42 1   
    39   17   23 1   
    40   17   39 1   
    41   19   23 1   
    42   19   35 1   
    43   19   43 1   
    44   20   23 2   
    45   21   23 2   
@<TRIPOS>SUBSTRUCTURE
     1 7T9         1 TEMP              0 ****  ****    0 ROOT
