@<TRIPOS>MOLECULE
7T9
   43    45     1     0     0
SMALL
bcc


@<TRIPOS>ATOM
      1 C12         0.0920    0.4940    0.0180 ca        1 7T9     -0.108000
      2 C18        -2.8990    0.2280    0.2360 ca        1 7T9     -0.049000
      3 C11         1.4140    0.9540    0.0510 ca        1 7T9     -0.091000
      4 C19        -4.2010   -0.2600    0.2230 ca        1 7T9     -0.267300
      5 C14         0.0490    0.3190    2.4440 ca        1 7T9     -0.093000
      6 C23        -2.4090   -1.3310    2.0100 ca        1 7T9      0.441200
      7 C13        -0.5950    0.1750    1.1970 cp        1 7T9      0.006000
      8 C17        -1.9690   -0.3040    1.1430 cp        1 7T9     -0.204300
      9 C10         2.0410    1.0880    1.2790 ca        1 7T9     -0.128300
     10 C15         1.3550    0.7710    2.4730 ca        1 7T9     -0.111300
     11 C20        -4.5410   -1.2920    1.1370 ca        1 7T9      0.634500
     12 C9          3.4190    1.5730    1.5670 c3        1 7T9     -0.040100
     13 C16         2.2150    1.0210    3.6640 c3        1 7T9     -0.046100
     14 C8          3.6320    1.2930    3.0830 c3        1 7T9      0.119500
     15 C1          8.2990    0.1940    1.6040 c3        1 7T9     -0.100600
     16 C3          6.7450   -1.7080    1.9650 c3        1 7T9     -0.100600
     17 C2          6.8530   -0.1980    1.8910 c3        1 7T9     -0.316900
     18 N22        -3.6520   -1.8290    2.0260 nb        1 7T9     -0.679000
     19 N7          4.5680    0.1470    3.3180 n4        1 7T9     -0.717900
     20 O5          6.8040   -0.0420    4.4720 o         1 7T9     -0.551300
     21 O6          6.4050    1.9650    3.2040 o         1 7T9     -0.551300
     22 F21        -5.8010   -1.7840    1.1430 f         1 7T9     -0.203200
     23 S4          6.3920    0.5880    3.3120 s6        1 7T9      1.350900
     24 H12        -0.4130    0.3790   -0.9550 ha        1 7T9      0.155000
     25 H11         1.9350    1.2060   -0.8840 ha        1 7T9      0.149000
     26 H18        -2.6060    1.0340   -0.4540 ha        1 7T9      0.150000
     27 H19        -4.9600    0.1330   -0.4680 ha        1 7T9      0.172000
     28 H14        -0.4920    0.0860    3.3740 ha        1 7T9      0.154000
     29 H23        -1.7140   -1.7920    2.7370 h4        1 7T9      0.027100
     30 H91C        4.1810    1.0830    0.9120 hc        1 7T9      0.078200
     31 H92C        3.4900    2.6820    1.3990 hc        1 7T9      0.078200
     32 H161        2.1850    0.1700    4.3890 hc        1 7T9      0.086700
     33 H162        1.8710    1.9410    4.2090 hc        1 7T9      0.086700
     34 H8          4.0900    2.1940    3.5870 hx        1 7T9      0.124700
     35 H7          4.3450   -0.2520    4.2360 hn        1 7T9      0.456300
     36 H11C        8.6120   -0.2200    0.6130 hc        1 7T9      0.080533
     37 H12C        8.4060    1.3070    1.5620 hc        1 7T9      0.080533
     38 H13C        8.9840   -0.2270    2.3810 hc        1 7T9      0.080533
     39 H2          6.2550    0.1430    0.9930 h1        1 7T9      0.147700
     40 H31C        7.1730   -2.0910    2.9260 hc        1 7T9      0.080533
     41 H32C        5.6870   -2.0490    1.8630 hc        1 7T9      0.080533
     42 H33C        7.3260   -2.1730    1.1270 hc        1 7T9      0.080533
     43 H72         4.3510   -0.5760    2.6310 hn        1 7T9      0.456300
@<TRIPOS>BOND
     1    1    3 ar  
     2    1    7 ar  
     3    1   24 1   
     4    2    4 ar  
     5    2    8 ar  
     6    2   26 1   
     7    3    9 ar  
     8    3   25 1   
     9    4   11 ar  
    10    4   27 1   
    11    5    7 ar  
    12    5   10 ar  
    13    5   28 1   
    14    6    8 ar  
    15    6   18 ar  
    16    6   29 1   
    17    7    8 1   
    18    9   10 ar  
    19    9   12 1   
    20   10   13 1   
    21   11   18 ar  
    22   11   22 1   
    23   12   14 1   
    24   12   30 1   
    25   12   31 1   
    26   13   14 1   
    27   13   32 1   
    28   13   33 1   
    29   14   19 1   
    30   14   34 1   
    31   15   17 1   
    32   15   36 1   
    33   15   37 1   
    34   15   38 1   
    35   16   17 1   
    36   16   40 1   
    37   16   41 1   
    38   16   42 1   
    39   17   23 1   
    40   17   39 1   
    41   19   23 1   
    42   19   35 1   
    43   19   43 1   
    44   20   23 2   
    45   21   23 2   
@<TRIPOS>SUBSTRUCTURE
     1 7T9         1 TEMP              0 ****  ****    0 ROOT
