@<TRIPOS>MOLECULE
7TJ
   63    66     1     0     0
SMALL
bcc


@<TRIPOS>ATOM
      1 C5          0.7350    0.6610    0.5670 c3        1 7TJ     -0.045800
      2 C2          2.0790    1.1740    0.2420 ca        1 7TJ     -0.302900
      3 C1          2.9510    1.5660    1.2870 ca        1 7TJ      0.437200
      4 N2          4.1910    2.0330    1.0790 nb        1 7TJ     -0.667000
      5 C4          4.5820    2.1070   -0.2350 ca        1 7TJ      0.721000
      6 CL          6.1690    2.6950   -0.5390 cl        1 7TJ     -0.092000
      7 N1          3.8360    1.7610   -1.3220 nb        1 7TJ     -0.674000
      8 C3          2.5790    1.2990   -1.0770 cp        1 7TJ      0.499800
      9 C6          1.7600    0.9300   -2.2480 cp        1 7TJ     -0.153500
     10 C11         0.4560    1.4160   -2.3860 ca        1 7TJ     -0.085000
     11 C10        -0.3120    1.0840   -3.4980 ca        1 7TJ     -0.147000
     12 C7          2.3000    0.1220   -3.2570 ca        1 7TJ     -0.085000
     13 C8          1.5450   -0.2100   -4.3770 ca        1 7TJ     -0.147000
     14 C9          0.2200    0.2600   -4.5110 ca        1 7TJ      0.050600
     15 N3         -0.5490   -0.0820   -5.6600 n         1 7TJ     -0.398000
     16 C12        -1.2000    0.9170   -6.4010 c         1 7TJ      0.704700
     17 O1         -1.3400    2.0580   -5.9310 o         1 7TJ     -0.555100
     18 C14        -1.7480    0.5830   -7.7450 ca        1 7TJ     -0.216600
     19 C22        -3.1200    0.7650   -7.9680 ca        1 7TJ     -0.032000
     20 C23        -3.6780    0.5710   -9.2230 ca        1 7TJ     -0.200000
     21 C24        -2.8390    0.2100  -10.2960 ca        1 7TJ      0.190100
     22 O2         -3.4500    0.0290  -11.5090 oh        1 7TJ     -0.484100
     23 C25        -1.4630    0.0390  -10.1120 ca        1 7TJ     -0.306000
     24 C26        -0.9250    0.2260   -8.8290 ca        1 7TJ      0.197100
     25 O3          0.4110    0.0370   -8.5760 oh        1 7TJ     -0.493100
     26 C13        -0.6390   -1.4720   -6.0150 c3        1 7TJ      0.135300
     27 C15        -1.8390   -2.2060   -5.4670 ca        1 7TJ     -0.036300
     28 C20        -2.3790   -1.9090   -4.2090 ca        1 7TJ     -0.117500
     29 C19        -3.4610   -2.6350   -3.7200 ca        1 7TJ     -0.092000
     30 C16        -2.3920   -3.2480   -6.2250 ca        1 7TJ     -0.117500
     31 C17        -3.4710   -3.9780   -5.7380 ca        1 7TJ     -0.092000
     32 C18        -4.0130   -3.6720   -4.4830 ca        1 7TJ     -0.214300
     33 C21        -5.1380   -4.4740   -3.9430 c3        1 7TJ      0.189100
     34 N4         -6.4560   -3.8370   -4.3310 n4        1 7TJ     -0.673800
     35 C27        -7.6480   -4.5740   -3.8290 c         1 7TJ      0.456100
     36 O4         -7.5360   -5.5850   -3.1680 o         1 7TJ     -0.316100
     37 C28        -9.0250   -3.9100   -4.2410 c3        1 7TJ      0.606900
     38 F1        -10.0870   -4.6070   -3.7680 f         1 7TJ     -0.176967
     39 F2         -9.1140   -2.6320   -3.7660 f         1 7TJ     -0.176967
     40 F3         -9.1440   -3.8310   -5.5990 f         1 7TJ     -0.176967
     41 H51C        0.0120    1.5110    0.6670 hc        1 7TJ      0.050033
     42 H52C        0.7500    0.1030    1.5370 hc        1 7TJ      0.050033
     43 H53C        0.3610   -0.0260   -0.2320 hc        1 7TJ      0.050033
     44 H1          2.6320    1.4970    2.3440 h4        1 7TJ      0.038100
     45 H11         0.0350    2.0830   -1.6170 ha        1 7TJ      0.151500
     46 H7          3.3380   -0.2390   -3.1780 ha        1 7TJ      0.151500
     47 H10        -1.3210    1.5140   -3.6060 ha        1 7TJ      0.147500
     48 H8          2.0070   -0.8220   -5.1670 ha        1 7TJ      0.147500
     49 H131        0.2750   -2.0180   -5.6300 h1        1 7TJ      0.084700
     50 H132       -0.6360   -1.5700   -7.1410 h1        1 7TJ      0.084700
     51 H22        -3.7560    1.0940   -7.1310 ha        1 7TJ      0.147000
     52 H23        -4.7510    0.7190   -9.4030 ha        1 7TJ      0.160000
     53 H2         -2.7670   -0.1190  -12.1810 ho        1 7TJ      0.433000
     54 H25        -0.8090   -0.2210  -10.9560 ha        1 7TJ      0.150000
     55 H3          0.8840    0.0200   -9.4230 ho        1 7TJ      0.437000
     56 H20        -1.9430   -1.0990   -3.5970 ha        1 7TJ      0.168000
     57 H16        -1.9670   -3.4950   -7.2120 ha        1 7TJ      0.168000
     58 H19        -3.8640   -2.4030   -2.7210 ha        1 7TJ      0.139500
     59 H17        -3.8830   -4.8060   -6.3360 ha        1 7TJ      0.139500
     60 H211       -5.1120   -4.5270   -2.8160 hx        1 7TJ      0.117200
     61 H212       -5.1400   -5.5240   -4.3560 hx        1 7TJ      0.117200
     62 H4         -6.5100   -3.7800   -5.3590 hn        1 7TJ      0.475800
     63 H42        -6.4820   -2.8740   -3.9640 hn        1 7TJ      0.475800
@<TRIPOS>BOND
     1    1    2 1   
     2    1   41 1   
     3    1   42 1   
     4    1   43 1   
     5    2    3 ar  
     6    2    8 ar  
     7    3    4 ar  
     8    3   44 1   
     9    4    5 ar  
    10    5    6 1   
    11    5    7 ar  
    12    7    8 ar  
    13    8    9 1   
    14    9   10 ar  
    15    9   12 ar  
    16   10   11 ar  
    17   10   45 1   
    18   11   14 ar  
    19   11   47 1   
    20   12   13 ar  
    21   12   46 1   
    22   13   14 ar  
    23   13   48 1   
    24   14   15 1   
    25   15   16 1   
    26   15   26 1   
    27   16   17 2   
    28   16   18 1   
    29   18   19 ar  
    30   18   24 ar  
    31   19   20 ar  
    32   19   51 1   
    33   20   21 ar  
    34   20   52 1   
    35   21   22 1   
    36   21   23 ar  
    37   22   53 1   
    38   23   24 ar  
    39   23   54 1   
    40   24   25 1   
    41   25   55 1   
    42   26   27 1   
    43   26   49 1   
    44   26   50 1   
    45   27   28 ar  
    46   27   30 ar  
    47   28   29 ar  
    48   28   56 1   
    49   29   32 ar  
    50   29   58 1   
    51   30   31 ar  
    52   30   57 1   
    53   31   32 ar  
    54   31   59 1   
    55   32   33 1   
    56   33   34 1   
    57   33   60 1   
    58   33   61 1   
    59   34   35 1   
    60   34   62 1   
    61   34   63 1   
    62   35   36 2   
    63   35   37 1   
    64   37   38 1   
    65   37   39 1   
    66   37   40 1   
@<TRIPOS>SUBSTRUCTURE
     1 7TJ         1 TEMP              0 ****  ****    0 ROOT
