@<TRIPOS>MOLECULE
7TJ
   63    66     1     0     0
SMALL
bcc


@<TRIPOS>ATOM
      1 C5          0.1850    1.0090    0.2830 c3        1 7TJ     -0.046800
      2 C2          1.5970    0.6340    0.0780 ca        1 7TJ     -0.302900
      3 C1          2.4760    0.5910    1.1870 ca        1 7TJ      0.436200
      4 N2          3.7700    0.2510    1.0940 nb        1 7TJ     -0.668000
      5 C4          4.2070   -0.0670   -0.1690 ca        1 7TJ      0.720000
      6 Cl          5.8590   -0.5160   -0.3260 cl        1 7TJ     -0.094000
      7 N1          3.4600   -0.0610   -1.3090 nb        1 7TJ     -0.677000
      8 C3          2.1520    0.2990   -1.1820 cp        1 7TJ      0.502800
      9 C6          1.3390    0.3170   -2.4120 cp        1 7TJ     -0.163500
     10 C11         0.5270    1.4150   -2.7160 ca        1 7TJ     -0.083000
     11 C10        -0.2300    1.4410   -3.8830 ca        1 7TJ     -0.153500
     12 C7          1.4050   -0.7500   -3.3160 ca        1 7TJ     -0.083000
     13 C8          0.6610   -0.7300   -4.4910 ca        1 7TJ     -0.153500
     14 C9         -0.1760    0.3660   -4.7960 ca        1 7TJ      0.059600
     15 N3         -0.9520    0.3850   -5.9890 n         1 7TJ     -0.388000
     16 C12        -0.9710    1.5350   -6.8020 c         1 7TJ      0.702700
     17 O1         -0.6800    2.6440   -6.3250 o         1 7TJ     -0.553100
     18 C14        -1.4030    1.4250   -8.2220 ca        1 7TJ     -0.224600
     19 C22        -2.4420    2.2600   -8.6620 ca        1 7TJ     -0.024000
     20 C23        -2.8250    2.2930   -9.9930 ca        1 7TJ     -0.191000
     21 C24        -2.1350    1.4900  -10.9240 ca        1 7TJ      0.193100
     22 O2         -2.5570    1.5700  -12.2240 oh        1 7TJ     -0.479100
     23 C25        -1.0860    0.6560  -10.5210 ca        1 7TJ     -0.307000
     24 C26        -0.7300    0.6270   -9.1640 ca        1 7TJ      0.192100
     25 O3          0.2620   -0.2060   -8.7040 oh        1 7TJ     -0.506100
     26 C13        -1.4220   -0.8800   -6.5000 c3        1 7TJ      0.128300
     27 C15        -2.2930   -1.6600   -5.5500 ca        1 7TJ     -0.023300
     28 C20        -3.3030   -1.0370   -4.8050 ca        1 7TJ     -0.113000
     29 C19        -4.1170   -1.7870   -3.9620 ca        1 7TJ     -0.092000
     30 C16        -2.1150   -3.0460   -5.4460 ca        1 7TJ     -0.113000
     31 C17        -2.9300   -3.8000   -4.6080 ca        1 7TJ     -0.092000
     32 C18        -3.9340   -3.1720   -3.8590 ca        1 7TJ     -0.212300
     33 C21        -4.7620   -3.9620   -2.9150 c3        1 7TJ      0.188100
     34 N4         -6.0220   -4.4370   -3.6070 ny        1 7TJ     -0.673800
     35 C27        -6.9230   -5.2340   -2.7310 c         1 7TJ      0.456100
     36 O4         -6.6420   -5.4610   -1.5720 o         1 7TJ     -0.315100
     37 C28        -8.2390   -5.7330   -3.4570 c3        1 7TJ      0.605900
     38 F1         -9.0340   -6.4560   -2.6300 f         1 7TJ     -0.176967
     39 F2         -8.9670   -4.6790   -3.9290 f         1 7TJ     -0.176967
     40 F3         -7.9360   -6.5120   -4.5380 f         1 7TJ     -0.176967
     41 H51C       -0.1710    0.6640    1.2860 hc        1 7TJ      0.051033
     42 H52C       -0.4710    0.5570   -0.5020 hc        1 7TJ      0.051033
     43 H53C        0.0700    2.1220    0.2390 hc        1 7TJ      0.051033
     44 H1          2.1160    0.8450    2.2030 h4        1 7TJ      0.038100
     45 H11         0.4930    2.2790   -2.0340 ha        1 7TJ      0.149500
     46 H7          2.0650   -1.6080   -3.1100 ha        1 7TJ      0.149500
     47 H10        -0.8430    2.3310   -4.1020 ha        1 7TJ      0.149000
     48 H8          0.7560   -1.5790   -5.1850 ha        1 7TJ      0.149000
     49 H131       -2.0440   -0.6970   -7.4280 h1        1 7TJ      0.078200
     50 H132       -0.5440   -1.5200   -6.8180 h1        1 7TJ      0.078200
     51 H22        -2.9420    2.9160   -7.9300 ha        1 7TJ      0.156000
     52 H23        -3.6380    2.9460  -10.3410 ha        1 7TJ      0.167000
     53 H2         -1.9650    1.0340  -12.7750 ho        1 7TJ      0.431000
     54 H25        -0.5400    0.0440  -11.2520 ha        1 7TJ      0.148000
     55 H3          0.8060   -0.4760   -9.4610 ho        1 7TJ      0.436000
     56 H20        -3.4450    0.0550   -4.8730 ha        1 7TJ      0.166500
     57 H16        -1.3150   -3.5430   -6.0200 ha        1 7TJ      0.166500
     58 H19        -4.8890   -1.2810   -3.3600 ha        1 7TJ      0.139500
     59 H17        -2.7640   -4.8850   -4.5180 ha        1 7TJ      0.139500
     60 H211       -5.0820   -3.3470   -2.0250 hx        1 7TJ      0.117700
     61 H212       -4.2180   -4.8790   -2.5460 hx        1 7TJ      0.117700
     62 H4         -5.7610   -5.0110   -4.4230 hn        1 7TJ      0.475300
     63 H42        -6.5410   -3.6170   -3.9570 hn        1 7TJ      0.475300
@<TRIPOS>BOND
     1    1    2 1   
     2    1   41 1   
     3    1   42 1   
     4    1   43 1   
     5    2    3 ar  
     6    2    8 ar  
     7    3    4 ar  
     8    3   44 1   
     9    4    5 ar  
    10    5    6 1   
    11    5    7 ar  
    12    7    8 ar  
    13    8    9 1   
    14    9   10 ar  
    15    9   12 ar  
    16   10   11 ar  
    17   10   45 1   
    18   11   14 ar  
    19   11   47 1   
    20   12   13 ar  
    21   12   46 1   
    22   13   14 ar  
    23   13   48 1   
    24   14   15 1   
    25   15   16 1   
    26   15   26 1   
    27   16   17 2   
    28   16   18 1   
    29   18   19 ar  
    30   18   24 ar  
    31   19   20 ar  
    32   19   51 1   
    33   20   21 ar  
    34   20   52 1   
    35   21   22 1   
    36   21   23 ar  
    37   22   53 1   
    38   23   24 ar  
    39   23   54 1   
    40   24   25 1   
    41   25   55 1   
    42   26   27 1   
    43   26   49 1   
    44   26   50 1   
    45   27   28 ar  
    46   27   30 ar  
    47   28   29 ar  
    48   28   56 1   
    49   29   32 ar  
    50   29   58 1   
    51   30   31 ar  
    52   30   57 1   
    53   31   32 ar  
    54   31   59 1   
    55   32   33 1   
    56   33   34 1   
    57   33   60 1   
    58   33   61 1   
    59   34   35 1   
    60   34   62 1   
    61   34   63 1   
    62   35   36 2   
    63   35   37 1   
    64   37   38 1   
    65   37   39 1   
    66   37   40 1   
@<TRIPOS>SUBSTRUCTURE
     1 7TJ         1 TEMP              0 ****  ****    0 ROOT
