@<TRIPOS>MOLECULE
7TM
   90    94     1     0     0
SMALL
bcc


@<TRIPOS>ATOM
      1 CAA        12.2130   -0.7580   -0.2200 c3        1 7TM     -0.093100
      2 CAV        11.1440   -0.0630    0.5820 c3        1 7TM     -0.080400
      3 CAW        10.0130    0.4200   -0.3010 c3        1 7TM     -0.079400
      4 CAX         8.9420    1.1170    0.5100 c3        1 7TM     -0.077400
      5 CAY         7.8140    1.5980   -0.3770 c3        1 7TM     -0.113400
      6 CAZ         6.7490    2.2970    0.4690 c3        1 7TM      0.077000
      7 NBF         5.6440    2.8530   -0.2740 n         1 7TM     -0.510900
      8 CBI         4.4930    2.1070   -0.4440 c         1 7TM      0.735100
      9 OAE         4.0780    1.1540    0.2340 o         1 7TM     -0.589000
     10 OBH         3.7180    2.5790   -1.5010 os        1 7TM     -0.372200
     11 CBM         2.3980    2.1270   -1.5640 ca        1 7TM      0.109100
     12 CAM         2.0160    1.4100   -2.7040 ca        1 7TM     -0.127500
     13 CAK         0.6880    1.0060   -2.8250 ca        1 7TM     -0.115500
     14 CAL         1.4760    2.4660   -0.5680 ca        1 7TM     -0.127500
     15 CAJ         0.1540    2.0530   -0.7080 ca        1 7TM     -0.115500
     16 CBK        -0.2430    1.3010   -1.8220 ca        1 7TM     -0.083300
     17 CBA        -1.6430    0.8040   -1.9160 c3        1 7TM     -0.053100
     18 CBR        -1.8780   -0.3470   -0.9120 c3        1 7TM      0.211500
     19 CBD        -1.0370   -1.5660   -1.3850 c3        1 7TM      0.214800
     20 NBS        -1.1960   -2.7890   -0.6560 nh        1 7TM     -0.686000
     21 CBC        -0.3960   -3.0310    0.5330 c3        1 7TM      0.299100
     22 CBP         0.1640   -1.8320    1.2100 cc        1 7TM     -0.269900
     23 CAS        -0.4480   -0.9960    2.1710 cd        1 7TM      0.308200
     24 NBE         0.4430   -0.0130    2.5870 nd        1 7TM     -0.699000
     25 CAT         1.5890   -0.2360    1.9020 cc        1 7TM      0.408400
     26 NBU         1.4690   -1.3370    1.0470 na        1 7TM     -0.188900
     27 CAC         2.4940   -1.8650    0.2090 c3        1 7TM      0.012600
     28 CBQ        -2.3510   -3.5660   -0.8260 ca        1 7TM      0.219600
     29 CAR        -2.2760   -4.9520   -0.5130 ca        1 7TM     -0.189000
     30 CAI        -3.3400   -5.8040   -0.7500 ca        1 7TM     -0.056000
     31 CBJ        -4.5280   -5.3100   -1.3090 ca        1 7TM     -0.062000
     32 CAH        -5.6130   -6.1850   -1.5740 cg        1 7TM      0.242800
     33 NAD        -6.5010   -6.9050   -1.7930 n1        1 7TM     -0.375800
     34 CAU        -4.6340   -3.9460   -1.5910 ca        1 7TM     -0.047000
     35 CBN        -3.5740   -3.0690   -1.3470 ca        1 7TM     -0.179300
     36 CBB        -3.8260   -1.6170   -1.6600 c3        1 7TM      0.268100
     37 NBT        -3.2710   -0.6750   -0.7260 n3        1 7TM     -0.800500
     38 SBV        -4.1230   -0.1990    0.5960 sy        1 7TM      1.518200
     39 OAF        -5.5000   -0.3930    0.3500 o         1 7TM     -0.656800
     40 OAG        -3.6040   -0.8030    1.7600 o         1 7TM     -0.656800
     41 CBO        -3.8060    1.4490    0.6840 ca        1 7TM     -0.428500
     42 CAP        -4.6100    2.3690   -0.0100 ca        1 7TM      0.017500
     43 CAN        -4.4040    3.7340    0.1000 ca        1 7TM     -0.214000
     44 CBL        -3.3650    4.2050    0.9290 ca        1 7TM      0.190100
     45 OBG        -3.2340    5.5720    0.9750 os        1 7TM     -0.319900
     46 CAB        -2.2250    6.0870    1.8410 c3        1 7TM      0.109700
     47 CAO        -2.5510    3.3050    1.6330 ca        1 7TM     -0.214000
     48 CAQ        -2.7840    1.9410    1.5050 ca        1 7TM      0.017500
     49 H1         12.6470   -0.0670   -0.9820 hc        1 7TM      0.034367
     50 H2         13.0360   -1.1060    0.4500 hc        1 7TM      0.034367
     51 H3         11.7930   -1.6460   -0.7530 hc        1 7TM      0.034367
     52 H4         10.7380   -0.7660    1.3580 hc        1 7TM      0.040200
     53 H5         11.5900    0.8090    1.1290 hc        1 7TM      0.040200
     54 H6         10.4170    1.1230   -1.0770 hc        1 7TM      0.041200
     55 H7          9.5640   -0.4520   -0.8470 hc        1 7TM      0.041200
     56 H8          8.5390    0.4130    1.2850 hc        1 7TM      0.044200
     57 H9          9.3920    1.9880    1.0550 hc        1 7TM      0.044200
     58 H10         8.2170    2.3010   -1.1510 hc        1 7TM      0.047700
     59 H11         7.3620    0.7260   -0.9180 hc        1 7TM      0.047700
     60 H12         6.3430    1.5700    1.2300 h1        1 7TM      0.071700
     61 H13         7.2260    3.1580    1.0210 h1        1 7TM      0.071700
     62 H14         5.8730    3.4810   -1.0140 hn        1 7TM      0.318500
     63 H15         2.7540    1.1760   -3.4840 ha        1 7TM      0.148500
     64 H16         0.3730    0.4380   -3.7140 ha        1 7TM      0.142000
     65 H17         1.8040    3.0260    0.3190 ha        1 7TM      0.148500
     66 H18        -0.5830    2.3030    0.0730 ha        1 7TM      0.142000
     67 H19        -2.3500    1.6470   -1.6870 hc        1 7TM      0.059700
     68 H20        -1.8680    0.4500   -2.9560 hc        1 7TM      0.059700
     69 H21        -1.4720   -0.0150    0.0970 h1        1 7TM      0.072700
     70 H22        -1.2830   -1.7760   -2.4670 h1        1 7TM      0.061200
     71 H23         0.0460   -1.2570   -1.3320 h1        1 7TM      0.061200
     72 H24        -1.0230   -3.5750    1.3020 h1        1 7TM      0.057700
     73 H25         0.4490   -3.7180    0.2250 h1        1 7TM      0.057700
     74 H26        -1.4680   -1.0670    2.5640 h4        1 7TM      0.076100
     75 H27         2.5110    0.3580    1.9540 h5        1 7TM      0.079100
     76 H28         2.0720   -2.1200   -0.8000 h1        1 7TM      0.060033
     77 H29         3.3080   -1.0980    0.0900 h1        1 7TM      0.060033
     78 H30         2.9250   -2.7980    0.6630 h1        1 7TM      0.060033
     79 H31        -1.3500   -5.3700   -0.0860 ha        1 7TM      0.141000
     80 H32        -3.2520   -6.8740   -0.5040 ha        1 7TM      0.144000
     81 H33        -5.5790   -3.5510   -1.9990 ha        1 7TM      0.147000
     82 H34        -3.4250   -1.3990   -2.6940 h1        1 7TM      0.068200
     83 H35        -4.9460   -1.4450   -1.6990 h1        1 7TM      0.068200
     84 H36        -5.4360    1.9910   -0.6380 ha        1 7TM      0.163500
     85 H37        -5.0360    4.4550   -0.4390 ha        1 7TM      0.155000
     86 H38        -2.4180    5.7780    2.8960 h1        1 7TM      0.051367
     87 H39        -1.2140    5.7490    1.5080 h1        1 7TM      0.051367
     88 H40        -2.3310    7.1960    1.7260 h1        1 7TM      0.051367
     89 H41        -1.7440    3.6610    2.2890 ha        1 7TM      0.155000
     90 H42        -2.1540    1.2270    2.0740 ha        1 7TM      0.163500
@<TRIPOS>BOND
     1    1    2 1   
     2    1   49 1   
     3    1   50 1   
     4    1   51 1   
     5    2    3 1   
     6    2   52 1   
     7    2   53 1   
     8    3    4 1   
     9    3   54 1   
    10    3   55 1   
    11    4    5 1   
    12    4   56 1   
    13    4   57 1   
    14    5    6 1   
    15    5   58 1   
    16    5   59 1   
    17    6    7 1   
    18    6   60 1   
    19    6   61 1   
    20    7    8 1   
    21    7   62 1   
    22    8    9 2   
    23    8   10 1   
    24   10   11 1   
    25   11   12 ar  
    26   11   14 ar  
    27   12   13 ar  
    28   12   63 1   
    29   13   16 ar  
    30   13   64 1   
    31   14   15 ar  
    32   14   65 1   
    33   15   16 ar  
    34   15   66 1   
    35   16   17 1   
    36   17   18 1   
    37   17   67 1   
    38   17   68 1   
    39   18   19 1   
    40   18   37 1   
    41   18   69 1   
    42   19   20 1   
    43   19   70 1   
    44   19   71 1   
    45   20   21 1   
    46   20   28 1   
    47   21   22 1   
    48   21   72 1   
    49   21   73 1   
    50   22   23 2   
    51   22   26 1   
    52   23   24 1   
    53   23   74 1   
    54   24   25 2   
    55   25   26 1   
    56   25   75 1   
    57   26   27 1   
    58   27   76 1   
    59   27   77 1   
    60   27   78 1   
    61   28   29 ar  
    62   28   35 ar  
    63   29   30 ar  
    64   29   79 1   
    65   30   31 ar  
    66   30   80 1   
    67   31   32 1   
    68   31   34 ar  
    69   32   33 3   
    70   34   35 ar  
    71   34   81 1   
    72   35   36 1   
    73   36   37 1   
    74   36   82 1   
    75   36   83 1   
    76   37   38 1   
    77   38   39 2   
    78   38   40 2   
    79   38   41 1   
    80   41   42 ar  
    81   41   48 ar  
    82   42   43 ar  
    83   42   84 1   
    84   43   44 ar  
    85   43   85 1   
    86   44   45 1   
    87   44   47 ar  
    88   45   46 1   
    89   46   86 1   
    90   46   87 1   
    91   46   88 1   
    92   47   48 ar  
    93   47   89 1   
    94   48   90 1   
@<TRIPOS>SUBSTRUCTURE
     1 7TM         1 TEMP              0 ****  ****    0 ROOT
