@<TRIPOS>MOLECULE
7TM
   91    95     1     0     0
SMALL
bcc


@<TRIPOS>ATOM
      1 CAA         2.0970    3.9890    4.1030 c3        1 7TM     -0.095100
      2 CAV         3.1330    3.4820    3.1340 c3        1 7TM     -0.079400
      3 CAW         3.9440    2.3530    3.7350 c3        1 7TM     -0.080400
      4 CAX         4.9840    1.8500    2.7550 c3        1 7TM     -0.077400
      5 CAY         5.7900    0.7200    3.3650 c3        1 7TM     -0.109400
      6 CAZ         6.8260    0.2390    2.3570 c3        1 7TM      0.116800
      7 NBF         7.6990   -0.8540    2.8760 n4        1 7TM     -0.692800
      8 CBI         7.0080   -2.1720    2.9190 c         1 7TM      0.604100
      9 OAE         6.0210   -2.4280    2.2450 o         1 7TM     -0.388000
     10 OBH         7.4520   -3.1480    3.7620 os        1 7TM     -0.264200
     11 CBM         8.7470   -3.0260    4.2960 ca        1 7TM      0.002100
     12 CAM         9.7590   -3.8050    3.7270 ca        1 7TM     -0.125500
     13 CAK        11.0470   -3.7030    4.2530 ca        1 7TM     -0.109000
     14 CAL         8.9650   -2.2280    5.4260 ca        1 7TM     -0.125500
     15 CAJ        10.2590   -2.1310    5.9290 ca        1 7TM     -0.109000
     16 CBK        11.3120   -2.8290    5.3130 ca        1 7TM     -0.051300
     17 CBA        12.7140   -2.5580    5.7400 c3        1 7TM     -0.063100
     18 CBR        13.2110   -1.2880    5.0040 c3        1 7TM      0.190500
     19 CBD        14.0910   -1.7120    3.8030 c3        1 7TM      0.177800
     20 NBS        14.6580   -0.6440    3.0120 nh        1 7TM     -0.633000
     21 CBC        13.7200    0.3580    2.5030 c3        1 7TM      0.236100
     22 CBP        12.4480   -0.1940    1.9690 cc        1 7TM     -0.187900
     23 CAS        11.1450    0.0330    2.4670 cd        1 7TM      0.297200
     24 NBE        10.2220   -0.6490    1.6850 nd        1 7TM     -0.805000
     25 CAT        10.9320   -1.2770    0.7150 cc        1 7TM      0.418400
     26 NBU        12.2970   -1.0240    0.8490 na        1 7TM     -0.161900
     27 CAC        13.3420   -1.5140    0.0060 c3        1 7TM      0.011600
     28 CBQ        15.8450   -0.0440    3.5430 ca        1 7TM      0.132600
     29 CAR        16.7830    0.4460    2.6030 ca        1 7TM     -0.135000
     30 CAI        17.9920    0.9890    3.0110 ca        1 7TM     -0.076000
     31 CBJ        18.3010    1.0610    4.3770 ca        1 7TM     -0.012000
     32 CAH        19.5390    1.6120    4.8040 cg        1 7TM      0.219800
     33 NAD        20.5520    2.0640    5.1550 n1        1 7TM     -0.333800
     34 CAU        17.3810    0.5900    5.3160 ca        1 7TM     -0.077000
     35 CBN        16.1530    0.0480    4.9190 ca        1 7TM     -0.143300
     36 CBB        15.2670   -0.4520    6.0330 c3        1 7TM      0.283100
     37 NBT        13.8530   -0.3090    5.8520 n3        1 7TM     -0.801500
     38 SBV        12.8650    0.8800    6.4310 sy        1 7TM      1.526200
     39 OAF        12.2970    1.5580    5.3200 o         1 7TM     -0.680300
     40 OAG        11.8930    0.2830    7.2680 o         1 7TM     -0.680300
     41 CBO        13.8520    1.8790    7.2970 ca        1 7TM     -0.469500
     42 CAP        14.4080    3.0310    6.7070 ca        1 7TM      0.028500
     43 CAN        15.1790    3.9170    7.4360 ca        1 7TM     -0.212500
     44 CBL        15.4120    3.6620    8.8070 ca        1 7TM      0.217100
     45 OBG        16.1870    4.5900    9.4440 os        1 7TM     -0.305900
     46 CAB        16.4340    4.3840   10.8360 c3        1 7TM      0.105700
     47 CAO        14.8610    2.5230    9.4200 ca        1 7TM     -0.212500
     48 CAQ        14.0910    1.6530    8.6620 ca        1 7TM      0.028500
     49 H1          1.3880    3.1730    4.3860 hc        1 7TM      0.040367
     50 H2          2.5790    4.3730    5.0340 hc        1 7TM      0.040367
     51 H3          1.5100    4.8190    3.6410 hc        1 7TM      0.040367
     52 H4          2.6300    3.1240    2.1960 hc        1 7TM      0.043700
     53 H5          3.8190    4.3220    2.8420 hc        1 7TM      0.043700
     54 H6          3.2600    1.5130    4.0240 hc        1 7TM      0.047200
     55 H7          4.4480    2.7110    4.6710 hc        1 7TM      0.047200
     56 H8          4.4770    1.4920    1.8200 hc        1 7TM      0.053700
     57 H9          5.6670    2.6920    2.4660 hc        1 7TM      0.053700
     58 H10         6.2910    1.0820    4.3020 hc        1 7TM      0.065200
     59 H11         5.1030   -0.1230    3.6430 hc        1 7TM      0.065200
     60 H12         6.3080   -0.1420    1.4290 hx        1 7TM      0.111200
     61 H13         7.5110    1.0890    2.0700 hx        1 7TM      0.111200
     62 H14         8.5750   -0.9230    2.2570 hn        1 7TM      0.494800
     63 H15         9.5380   -4.4820    2.8880 ha        1 7TM      0.159000
     64 H16        11.8610   -4.3030    3.8160 ha        1 7TM      0.176000
     65 H17         8.1310   -1.7070    5.9200 ha        1 7TM      0.159000
     66 H18        10.4700   -1.4820    6.8020 ha        1 7TM      0.176000
     67 H19        12.7440   -2.4090    6.8540 hc        1 7TM      0.078200
     68 H20        13.3790   -3.4270    5.5010 hc        1 7TM      0.078200
     69 H21        12.2940   -0.7710    4.5660 h1        1 7TM      0.061700
     70 H22        13.4390   -2.3280    3.1190 h1        1 7TM      0.066700
     71 H23        14.9340   -2.3680    4.1620 h1        1 7TM      0.066700
     72 H24        14.2600    0.9130    1.6800 h1        1 7TM      0.080200
     73 H25        13.4310    1.1090    3.3020 h1        1 7TM      0.080200
     74 H26        10.8750    0.6640    3.3200 h4        1 7TM      0.070100
     75 H27        10.5170   -1.8940   -0.0910 h5        1 7TM      0.074100
     76 H28        13.9610   -0.6530   -0.3660 h1        1 7TM      0.073033
     77 H29        12.9000   -2.0610   -0.8680 h1        1 7TM      0.073033
     78 H30        14.0060   -2.2100    0.5900 h1        1 7TM      0.073033
     79 H31        16.5620    0.3880    1.5250 ha        1 7TM      0.147000
     80 H32        18.7110    1.3600    2.2630 ha        1 7TM      0.157000
     81 H33        17.6280    0.6510    6.3900 ha        1 7TM      0.149000
     82 H34        15.5490    0.0910    6.9860 h1        1 7TM      0.064700
     83 H35        15.5090   -1.5470    6.1930 h1        1 7TM      0.064700
     84 H36        14.2060    3.2360    5.6400 ha        1 7TM      0.156000
     85 H37        15.6100    4.8190    6.9750 ha        1 7TM      0.164000
     86 H38        16.9860    3.4270   10.9960 h1        1 7TM      0.059700
     87 H39        17.0700    5.2640   11.1110 h1        1 7TM      0.059700
     88 H40        15.4750    4.3930   11.4080 h1        1 7TM      0.059700
     89 H41        15.0270    2.3220   10.4890 ha        1 7TM      0.164000
     90 H42        13.6380    0.7690    9.1470 ha        1 7TM      0.156000
     91 HBF2        8.0170   -0.6190    3.8250 hn        1 7TM      0.494800
@<TRIPOS>BOND
     1    1    2 1   
     2    1   49 1   
     3    1   50 1   
     4    1   51 1   
     5    2    3 1   
     6    2   52 1   
     7    2   53 1   
     8    3    4 1   
     9    3   54 1   
    10    3   55 1   
    11    4    5 1   
    12    4   56 1   
    13    4   57 1   
    14    5    6 1   
    15    5   58 1   
    16    5   59 1   
    17    6    7 1   
    18    6   60 1   
    19    6   61 1   
    20    7    8 1   
    21    7   62 1   
    22    7   91 1   
    23    8    9 2   
    24    8   10 1   
    25   10   11 1   
    26   11   12 ar  
    27   11   14 ar  
    28   12   13 ar  
    29   12   63 1   
    30   13   16 ar  
    31   13   64 1   
    32   14   15 ar  
    33   14   65 1   
    34   15   16 ar  
    35   15   66 1   
    36   16   17 1   
    37   17   18 1   
    38   17   67 1   
    39   17   68 1   
    40   18   19 1   
    41   18   37 1   
    42   18   69 1   
    43   19   20 1   
    44   19   70 1   
    45   19   71 1   
    46   20   21 1   
    47   20   28 1   
    48   21   22 1   
    49   21   72 1   
    50   21   73 1   
    51   22   23 2   
    52   22   26 1   
    53   23   24 1   
    54   23   74 1   
    55   24   25 2   
    56   25   26 1   
    57   25   75 1   
    58   26   27 1   
    59   27   76 1   
    60   27   77 1   
    61   27   78 1   
    62   28   29 ar  
    63   28   35 ar  
    64   29   30 ar  
    65   29   79 1   
    66   30   31 ar  
    67   30   80 1   
    68   31   32 1   
    69   31   34 ar  
    70   32   33 3   
    71   34   35 ar  
    72   34   81 1   
    73   35   36 1   
    74   36   37 1   
    75   36   82 1   
    76   36   83 1   
    77   37   38 1   
    78   38   39 2   
    79   38   40 2   
    80   38   41 1   
    81   41   42 ar  
    82   41   48 ar  
    83   42   43 ar  
    84   42   84 1   
    85   43   44 ar  
    86   43   85 1   
    87   44   45 1   
    88   44   47 ar  
    89   45   46 1   
    90   46   86 1   
    91   46   87 1   
    92   46   88 1   
    93   47   48 ar  
    94   47   89 1   
    95   48   90 1   
@<TRIPOS>SUBSTRUCTURE
     1 7TM         1 TEMP              0 ****  ****    0 ROOT
