@<TRIPOS>MOLECULE
7TM
   91    95     1     0     0
SMALL
bcc


@<TRIPOS>ATOM
      1 CAA         5.2910    5.4530    2.4710 c3        1 7TM     -0.095100
      2 CAV         4.8190    4.0330    2.6480 c3        1 7TM     -0.079400
      3 CAW         5.9550    3.1230    3.0680 c3        1 7TM     -0.079400
      4 CAX         5.4730    1.6990    3.2450 c3        1 7TM     -0.078400
      5 CAY         6.6160    0.7960    3.6630 c3        1 7TM     -0.107400
      6 CAZ         6.0920   -0.6230    3.8420 c3        1 7TM      0.120800
      7 NBF         7.1740   -1.5810    4.2220 n4        1 7TM     -0.693800
      8 CBI         6.6310   -2.9400    4.4950 c         1 7TM      0.607100
      9 OAE         5.5480   -3.3140    4.0690 o         1 7TM     -0.388000
     10 OBH         7.3230   -3.8100    5.2830 os        1 7TM     -0.262200
     11 CBM         8.6810   -3.5440    5.5370 ca        1 7TM      0.003100
     12 CAM         9.6290   -4.2970    4.8380 ca        1 7TM     -0.125000
     13 CAK        10.9800   -4.0540    5.0870 ca        1 7TM     -0.108500
     14 CAL         9.0410   -2.6320    6.5370 ca        1 7TM     -0.125000
     15 CAJ        10.3930   -2.3950    6.7610 ca        1 7TM     -0.108500
     16 CBK        11.3660   -3.0690    6.0030 ca        1 7TM     -0.050300
     17 CBA        12.7930   -2.6580    6.1180 c3        1 7TM     -0.063100
     18 CBR        13.0230   -1.4360    5.1920 c3        1 7TM      0.189500
     19 CBD        13.6890   -1.9160    3.8790 c3        1 7TM      0.177800
     20 NBS        13.9930   -0.8950    2.9030 nh        1 7TM     -0.633000
     21 CBC        12.8880   -0.0190    2.5100 c3        1 7TM      0.236100
     22 CBP        11.5890   -0.7110    2.2980 cc        1 7TM     -0.188900
     23 CAS        10.3940   -0.5190    3.0270 cd        1 7TM      0.295200
     24 NBE         9.3980   -1.3410    2.5150 nd        1 7TM     -0.803000
     25 CAT         9.9570   -2.0200    1.4820 cc        1 7TM      0.417400
     26 NBU        11.2950   -1.6630    1.3120 na        1 7TM     -0.162900
     27 CAC        12.1940   -2.1700    0.3230 c3        1 7TM      0.011600
     28 CBQ        15.2000   -0.1610    3.1310 ca        1 7TM      0.133600
     29 CAR        15.8910    0.2990    1.9830 ca        1 7TM     -0.135000
     30 CAI        17.1020    0.9670    2.0910 ca        1 7TM     -0.076000
     31 CBJ        17.6610    1.1980    3.3560 ca        1 7TM     -0.012000
     32 CAH        18.9030    1.8770    3.4770 cg        1 7TM      0.219800
     33 NAD        19.9190    2.4350    3.5770 n1        1 7TM     -0.333800
     34 CAU        16.9870    0.7590    4.4980 ca        1 7TM     -0.077000
     35 CBN        15.7600    0.0920    4.4040 ca        1 7TM     -0.143300
     36 CBB        15.1550   -0.3560    5.7120 c3        1 7TM      0.283100
     37 NBT        13.7270   -0.3330    5.8080 n3        1 7TM     -0.801500
     38 SBV        12.7670    0.8330    6.4720 sy        1 7TM      1.526200
     39 OAF        11.9380    1.3590    5.4460 o         1 7TM     -0.680300
     40 OAG        12.0280    0.2530    7.5310 o         1 7TM     -0.680300
     41 CBO        13.8090    1.9780    7.0420 ca        1 7TM     -0.469500
     42 CAP        14.1390    3.1040    6.2620 ca        1 7TM      0.028500
     43 CAN        14.9540    4.1090    6.7490 ca        1 7TM     -0.212500
     44 CBL        15.4640    4.0050    8.0630 ca        1 7TM      0.217100
     45 OBG        16.2620    5.0420    8.4570 os        1 7TM     -0.305900
     46 CAB        16.7860    4.9910    9.7850 c3        1 7TM      0.105700
     47 CAO        15.1420    2.8950    8.8640 ca        1 7TM     -0.212500
     48 CAQ        14.3220    1.9040    8.3470 ca        1 7TM      0.028500
     49 H1          6.0840    5.5110    1.6860 hc        1 7TM      0.040033
     50 H2          5.7130    5.8520    3.4250 hc        1 7TM      0.040033
     51 H3          4.4400    6.1060    2.1620 hc        1 7TM      0.040033
     52 H4          4.3770    3.6600    1.6870 hc        1 7TM      0.043700
     53 H5          4.0070    3.9990    3.4210 hc        1 7TM      0.043700
     54 H6          6.7670    3.1550    2.2950 hc        1 7TM      0.047200
     55 H7          6.3970    3.4950    4.0300 hc        1 7TM      0.047200
     56 H8          4.6610    1.6690    4.0190 hc        1 7TM      0.053200
     57 H9          5.0310    1.3290    2.2820 hc        1 7TM      0.053200
     58 H10         7.0600    1.1730    4.6230 hc        1 7TM      0.069200
     59 H11         7.4230    0.8220    2.8820 hc        1 7TM      0.069200
     60 H12         5.3010   -0.6500    4.6460 hx        1 7TM      0.105700
     61 H13         5.6310   -0.9970    2.8830 hx        1 7TM      0.105700
     62 H14         7.6620   -1.2380    5.0580 hn        1 7TM      0.493800
     63 H15         9.3110   -5.0620    4.1140 ha        1 7TM      0.159000
     64 H16        11.7440   -4.6320    4.5440 ha        1 7TM      0.176000
     65 H17         8.2750   -2.1290    7.1470 ha        1 7TM      0.159000
     66 H18        10.7100   -1.6540    7.5220 ha        1 7TM      0.176000
     67 H19        13.4760   -3.4970    5.8250 hc        1 7TM      0.078200
     68 H20        13.0240   -2.3960    7.1860 hc        1 7TM      0.078200
     69 H21        11.9960   -1.0320    4.9050 h1        1 7TM      0.061700
     70 H22        14.6420   -2.4680    4.1160 h1        1 7TM      0.066700
     71 H23        12.9750   -2.6420    3.3960 h1        1 7TM      0.066700
     72 H24        12.6950    0.7890    3.2820 h1        1 7TM      0.079700
     73 H25        13.2040    0.4830    1.5470 h1        1 7TM      0.079700
     74 H26        10.2410    0.1790    3.8560 h4        1 7TM      0.069100
     75 H27         9.4480   -2.7460    0.8370 h5        1 7TM      0.074100
     76 H28        12.6600   -1.3140   -0.2360 h1        1 7TM      0.072700
     77 H29        13.0100   -2.7630    0.8210 h1        1 7TM      0.072700
     78 H30        11.6360   -2.8260   -0.3950 h1        1 7TM      0.072700
     79 H31        15.4710    0.1160    0.9810 ha        1 7TM      0.147000
     80 H32        17.6250    1.3100    1.1850 ha        1 7TM      0.157000
     81 H33        17.4300    0.9460    5.4910 ha        1 7TM      0.149000
     82 H34        15.5670    0.2990    6.5390 h1        1 7TM      0.064700
     83 H35        15.5220   -1.4090    5.9110 h1        1 7TM      0.064700
     84 H36        13.7210    3.1890    5.2420 ha        1 7TM      0.156000
     85 H37        15.2090    4.9890    6.1400 ha        1 7TM      0.164000
     86 H38        17.4410    4.0960    9.9110 h1        1 7TM      0.059700
     87 H39        15.9560    4.9880   10.5320 h1        1 7TM      0.059700
     88 H40        17.3840    5.9360    9.8560 h1        1 7TM      0.059700
     89 H41        15.5250    2.8110    9.8920 ha        1 7TM      0.164000
     90 H42        14.0480    1.0420    8.9830 ha        1 7TM      0.156000
     91 HBF2        7.9010   -1.6250    3.4360 hn        1 7TM      0.493800
@<TRIPOS>BOND
     1    1    2 1   
     2    1   49 1   
     3    1   50 1   
     4    1   51 1   
     5    2    3 1   
     6    2   52 1   
     7    2   53 1   
     8    3    4 1   
     9    3   54 1   
    10    3   55 1   
    11    4    5 1   
    12    4   56 1   
    13    4   57 1   
    14    5    6 1   
    15    5   58 1   
    16    5   59 1   
    17    6    7 1   
    18    6   60 1   
    19    6   61 1   
    20    7    8 1   
    21    7   62 1   
    22    7   91 1   
    23    8    9 2   
    24    8   10 1   
    25   10   11 1   
    26   11   12 ar  
    27   11   14 ar  
    28   12   13 ar  
    29   12   63 1   
    30   13   16 ar  
    31   13   64 1   
    32   14   15 ar  
    33   14   65 1   
    34   15   16 ar  
    35   15   66 1   
    36   16   17 1   
    37   17   18 1   
    38   17   67 1   
    39   17   68 1   
    40   18   19 1   
    41   18   37 1   
    42   18   69 1   
    43   19   20 1   
    44   19   70 1   
    45   19   71 1   
    46   20   21 1   
    47   20   28 1   
    48   21   22 1   
    49   21   72 1   
    50   21   73 1   
    51   22   23 2   
    52   22   26 1   
    53   23   24 1   
    54   23   74 1   
    55   24   25 2   
    56   25   26 1   
    57   25   75 1   
    58   26   27 1   
    59   27   76 1   
    60   27   77 1   
    61   27   78 1   
    62   28   29 ar  
    63   28   35 ar  
    64   29   30 ar  
    65   29   79 1   
    66   30   31 ar  
    67   30   80 1   
    68   31   32 1   
    69   31   34 ar  
    70   32   33 3   
    71   34   35 ar  
    72   34   81 1   
    73   35   36 1   
    74   36   37 1   
    75   36   82 1   
    76   36   83 1   
    77   37   38 1   
    78   38   39 2   
    79   38   40 2   
    80   38   41 1   
    81   41   42 ar  
    82   41   48 ar  
    83   42   43 ar  
    84   42   84 1   
    85   43   44 ar  
    86   43   85 1   
    87   44   45 1   
    88   44   47 ar  
    89   45   46 1   
    90   46   86 1   
    91   46   87 1   
    92   46   88 1   
    93   47   48 ar  
    94   47   89 1   
    95   48   90 1   
@<TRIPOS>SUBSTRUCTURE
     1 7TM         1 TEMP              0 ****  ****    0 ROOT
