@<TRIPOS>MOLECULE
7TM
   90    83     1     0     0
SMALL
bcc


@<TRIPOS>ATOM
      1 CAA        -7.8470   -0.7460  -10.4470 c3        1 7TM     -0.211000
      2 CAV        -7.1790   -0.1440   -9.2280 c3        1 7TM     -0.159000
      3 CAW        -6.1250   -1.1200   -8.6870 c3        1 7TM     -0.158000
      4 CAX        -6.0590   -1.0100   -7.1640 c3        1 7TM     -0.155000
      5 CAY        -4.5910   -1.2350   -6.6950 c3        1 7TM     -0.192000
      6 CAZ        -4.4750   -0.9090   -5.1900 c3        1 7TM     -0.040000
      7 NBF        -3.3370   -1.6200   -4.6240 n         1 7TM     -0.321000
      8 CBI        -2.5400   -0.9960   -3.5900 c2        1 7TM      0.383000
      9 OAE        -1.8050   -0.0480   -3.8680 o         1 7TM     -0.370000
     10 OBH        -2.5230   -1.5450   -2.2760 os        1 7TM     -0.245000
     11 CBM        -1.5830   -0.9290   -1.4070 c2        1 7TM      0.059000
     12 CAM        -0.8750   -1.7150   -0.4770 c2        1 7TM     -0.135000
     13 CAK        -0.1130   -1.1040    0.5200 c1        1 7TM     -0.129000
     14 CAL        -1.5220    0.4670   -1.3290 c1        1 7TM     -0.126000
     15 CAJ        -0.7560    1.0820   -0.3280 c1        1 7TM     -0.119000
     16 CBK        -0.0510    0.2950    0.5980 c1        1 7TM     -0.078000
     17 CBA         0.6740    0.9770    1.8150 c3        1 7TM     -0.128000
     18 CBR         0.5900    0.0680    3.0340 c3        1 7TM      0.034000
     19 CBD         0.7070    0.9210    4.3170 c3        1 7TM     -0.051000
     20 NBS         1.3090    2.2070    4.0220 n3        1 7TM     -0.266000
     21 CBC         1.3410    3.0580    5.2850 c3        1 7TM      0.039000
     22 CBP         0.7430    4.4180    4.9940 c2        1 7TM     -0.140000
     23 CAS         0.7750    5.0710    3.7660 c1        1 7TM     -0.140000
     24 NBE         0.3260    6.3320    3.9520 n2        1 7TM     -0.140000
     25 CAT         0.0090    6.4820    5.2900 c1        1 7TM     -0.092000
     26 NBU         0.2700    5.2980    5.9240 n2        1 7TM     -0.158000
     27 CAC         0.1820    5.0640    7.3210 c2        1 7TM     -0.075000
     28 CBQ         2.6480    2.0450    3.5210 c2        1 7TM      0.103000
     29 CAR         3.4740    3.1690    3.5430 c2        1 7TM     -0.177000
     30 CAI         4.8130    3.0450    3.9170 c1        1 7TM     -0.064000
     31 CBJ         5.3270    1.7860    4.2700 c1        1 7TM     -0.037000
     32 CAH         6.8410    1.6360    4.6500 c1        1 7TM     -0.090000
     33 NAD         7.9520    1.5240    4.9280 n1        1 7TM     -0.045000
     34 CAU         4.5130    0.6780    4.2480 c1        1 7TM     -0.056000
     35 CBN         3.1620    0.8040    3.8710 c1        1 7TM     -0.121000
     36 CBB         2.9020   -0.2350    2.7680 c2        1 7TM      0.036000
     37 NBT         1.6320   -0.8830    2.9660 n3        1 7TM     -0.813000
     38 SBV         1.4300   -2.5600    3.2010 s4        1 7TM      2.066800
     39 OAF         0.0260   -2.9380    3.1370 o         1 7TM     -0.546400
     40 OAG         1.7670   -2.9460    4.5750 o         1 7TM     -0.546400
     41 CBO         2.4040   -3.4800    2.0160 c1        1 7TM     -0.874000
     42 CAP         3.7290   -3.7860    2.3010 c2        1 7TM      0.006000
     43 CAN         4.5270   -4.4070    1.3370 c1        1 7TM     -0.187000
     44 CBL         3.9940   -4.7210    0.0840 c1        1 7TM      0.148000
     45 OBG         4.8400   -5.3250   -0.9360 os        1 7TM     -0.202000
     46 CAB         5.3700   -4.3850   -1.8890 c3        1 7TM     -0.080000
     47 CAO         2.6730   -4.4170   -0.2010 c1        1 7TM     -0.236000
     48 CAQ         1.8700   -3.7920    0.7690 c1        1 7TM      0.033000
     49 H1         -7.1740   -1.2160  -10.9900 hc        1 7TM      0.073000
     50 H2         -8.5400   -1.3830  -10.1610 hc        1 7TM      0.073000
     51 H3         -8.2570   -0.0350  -10.9780 hc        1 7TM      0.073000
     52 H4         -6.7310    0.7290   -9.4840 hc        1 7TM      0.079000
     53 H5         -7.8840    0.0330   -8.5060 hc        1 7TM      0.079000
     54 H6         -5.2340   -0.8940   -9.0740 hc        1 7TM      0.080500
     55 H7         -6.3690   -2.0380   -8.9400 hc        1 7TM      0.080500
     56 H8         -6.3600   -0.1200   -6.8860 hc        1 7TM      0.084000
     57 H9         -6.6320   -1.6830   -6.7670 hc        1 7TM      0.084000
     58 H10        -4.3410   -2.1610   -6.8460 hc        1 7TM      0.085500
     59 H11        -3.9950   -0.6500   -7.2020 hc        1 7TM      0.085500
     60 H12        -4.3480    0.0500   -5.0760 h1        1 7TM      0.111000
     61 H13        -5.3140   -1.1950   -4.7200 h1        1 7TM      0.111000
     62 H14        -3.1550   -2.4880   -4.8880 hn        1 7TM      0.226000
     63 H15        -0.9180   -2.7320   -0.5320 ha        1 7TM      0.151000
     64 H16         0.4020   -1.6790    1.1970 ha        1 7TM      0.162000
     65 H17        -2.0280    1.0300   -1.9940 ha        1 7TM      0.162000
     66 H18        -0.7140    2.0710   -0.2740 ha        1 7TM      0.138000
     67 H19         1.6320    1.1330    1.5850 hc        1 7TM      0.101000
     68 H20         0.2460    1.8240    2.0130 hc        1 7TM      0.101000
     69 H21        -0.2740   -0.3960    3.0320 h1        1 7TM      0.122000
     70 H22        -0.1890    1.0700    4.6760 h1        1 7TM      0.091500
     71 H23         1.2750    0.4500    4.9550 h1        1 7TM      0.091500
     72 H24         0.8260    2.6220    5.9850 h1        1 7TM      0.084500
     73 H25         2.2590    3.1650    5.5790 h1        1 7TM      0.084500
     74 H26         1.0680    4.6890    2.9270 DU        1 7TM      0.190000
     75 H27        -0.3350    7.2840    5.7050 DU        1 7TM      0.190000
     76 H28         0.9160    5.5380    7.7840 ha        1 7TM      0.092333
     77 H29        -0.6790    5.3930    7.6540 ha        1 7TM      0.092333
     78 H30         0.2510    4.1130    7.4930 ha        1 7TM      0.092333
     79 H31         3.1050    4.0690    3.2910 ha        1 7TM      0.133000
     80 H32         5.4010    3.8010    3.8530 ha        1 7TM      0.143000
     81 H33         4.8740   -0.2020    4.4950 ha        1 7TM      0.143000
     82 H34         3.6240   -0.9190    2.7850 h4        1 7TM      0.101500
     83 H35         2.9030    0.2280    1.8670 h4        1 7TM      0.101500
     84 H36         4.0950   -3.5700    3.1570 ha        1 7TM      0.161000
     85 H37         5.4570   -4.6210    1.5380 ha        1 7TM      0.160000
     86 H38         6.3470   -4.4250   -1.8780 h1        1 7TM      0.091000
     87 H39         5.0810   -3.4880   -1.6570 h1        1 7TM      0.091000
     88 H40         5.0380   -4.6160   -2.8020 h1        1 7TM      0.091000
     89 H41         2.2970   -4.6370   -1.0800 ha        1 7TM      0.150000
     90 H42         0.9320   -3.5760    0.5660 ha        1 7TM      0.159000
@<TRIPOS>BOND
     1    1    2 1   
     2    1   49 1   
     3    1   50 1   
     4    1   51 1   
     5    2    3 1   
     6    2   52 1   
     7    2   53 1   
     8    3    4 1   
     9    3   54 1   
    10    3   55 1   
    11    4    5 1   
    12    4   56 1   
    13    4   57 1   
    14    5    6 1   
    15    5   58 1   
    16    5   59 1   
    17    6    7 1   
    18    6   60 1   
    19    6   61 1   
    20    7    8 1   
    21    7   62 1   
    22    8    9 1   
    23    8   10 1   
    24   10   11 1   
    25   11   12 1   
    26   11   14 1   
    27   12   13 1   
    28   12   63 1   
    29   13   64 1   
    30   14   65 1   
    31   15   16 1   
    32   15   66 1   
    33   16   17 1   
    34   17   18 1   
    35   17   67 1   
    36   17   68 1   
    37   18   19 1   
    38   18   37 1   
    39   18   69 1   
    40   19   20 1   
    41   19   70 1   
    42   19   71 1   
    43   20   21 1   
    44   20   28 1   
    45   21   22 1   
    46   21   72 1   
    47   21   73 1   
    48   22   23 1   
    49   22   26 1   
    50   23   24 1   
    51   24   25 1   
    52   25   26 1   
    53   27   76 1   
    54   27   77 1   
    55   27   78 1   
    56   28   29 1   
    57   28   35 1   
    58   29   30 1   
    59   29   79 1   
    60   30   80 1   
    61   31   32 1   
    62   31   34 1   
    63   32   33 1   
    64   34   81 1   
    65   36   37 1   
    66   36   82 1   
    67   36   83 1   
    68   37   38 1   
    69   38   39 1   
    70   38   40 1   
    71   41   42 1   
    72   41   48 1   
    73   42   43 1   
    74   42   84 1   
    75   43   85 1   
    76   44   45 1   
    77   44   47 1   
    78   45   46 1   
    79   46   86 1   
    80   46   87 1   
    81   46   88 1   
    82   47   89 1   
    83   48   90 1   
@<TRIPOS>SUBSTRUCTURE
     1 7TM         1 TEMP              0 ****  ****    0 ROOT
