@<TRIPOS>MOLECULE
7TM
   91    95     1     0     0
SMALL
bcc


@<TRIPOS>ATOM
      1 CAA         5.4660    5.5140    2.1230 c3        1 7TM     -0.213000
      2 CAV         4.9460    4.1260    2.3900 c3        1 7TM     -0.158000
      3 CAW         6.0660    3.1830    2.7770 c3        1 7TM     -0.158000
      4 CAX         5.5360    1.7900    3.0450 c3        1 7TM     -0.157000
      5 CAY         6.6630    0.8530    3.4320 c3        1 7TM     -0.186000
      6 CAZ         6.0910   -0.5300    3.7110 c3        1 7TM     -0.117000
      7 NBF         7.1550   -1.5230    4.0480 ny        1 7TM     -0.122000
      8 CBI         6.5710   -2.8450    4.4180 c2        1 7TM      0.328000
      9 OAE         5.4690   -3.2040    4.0270 o         1 7TM     -0.202000
     10 OBH         7.2460   -3.6870    5.2480 os        1 7TM     -0.122000
     11 CBM         8.6070   -3.4230    5.4910 ca        1 7TM     -0.057000
     12 CAM         9.5520   -4.2150    4.8320 ca        1 7TM     -0.128500
     13 CAK        10.9040   -3.9490    5.0490 ca        1 7TM     -0.107500
     14 CAL         8.9720   -2.4560    6.4380 ca        1 7TM     -0.128500
     15 CAJ        10.3240   -2.1970    6.6280 ca        1 7TM     -0.107500
     16 CBK        11.2940   -2.9020    5.8910 ca        1 7TM     -0.016000
     17 CBA        12.7120   -2.4470    5.9420 c3        1 7TM     -0.121000
     18 CBR        12.7940   -1.0710    5.2430 c3        1 7TM      0.150000
     19 CBD        13.1490   -1.2170    3.8210 c2        1 7TM     -0.724000
     20 NBS        13.3130   -0.0090    3.0770 nx        1 7TM      0.192000
     21 CBC        12.7600   -0.1900    1.6890 c3        1 7TM     -0.022000
     22 CBP        11.4480   -0.8850    1.7210 c2        1 7TM     -0.075000
     23 CAS        10.2220   -0.4460    2.2680 c2        1 7TM     -0.143000
     24 NBE         9.2670   -1.4480    2.1400 n2        1 7TM     -0.267000
     25 CAT         9.8820   -2.4820    1.5160 c2        1 7TM     -0.063000
     26 NBU        11.2160   -2.1850    1.2430 na        1 7TM     -0.110000
     27 CAC        12.1780   -3.0570    0.6480 c3        1 7TM     -0.091000
     28 CBQ        14.7080    0.5060    3.0730 ca        1 7TM     -0.081000
     29 CAR        15.2630    1.0730    1.9110 ca        1 7TM     -0.140000
     30 CAI        16.5690    1.5520    1.9040 ca        1 7TM     -0.083000
     31 CBJ        17.3430    1.4770    3.0680 ca        1 7TM      0.020000
     32 CAH        18.6800    1.9610    3.0700 c1        1 7TM     -0.118000
     33 NAD        19.7740    2.3570    3.0710 n1        1 7TM      0.009000
     34 CAU        16.7940    0.9290    4.2290 ca        1 7TM     -0.090000
     35 CBN        15.4810    0.4390    4.2540 ca        1 7TM     -0.070000
     36 CBB        15.0480   -0.1770    5.5690 c3        1 7TM      0.040000
     37 NBT        13.6670   -0.0960    5.9250 n3        1 7TM     -0.843000
     38 SBV        12.8810    1.2170    6.5140 s6        1 7TM      2.837000
     39 OAF        12.4320    1.9730    5.3880 o         1 7TM     -0.964500
     40 OAG        11.8310    0.7900    7.3660 o         1 7TM     -0.964500
     41 CBO        14.0210    2.0630    7.3680 ca        1 7TM     -0.898000
     42 CAP        14.5950    3.2360    6.8420 ca        1 7TM      0.024500
     43 CAN        15.5030    3.9860    7.5660 ca        1 7TM     -0.212500
     44 CBL        15.8580    3.5670    8.8690 ca        1 7TM      0.165000
     45 OBG        16.7650    4.3680    9.5070 os        1 7TM     -0.193000
     46 CAB        17.1260    4.0020   10.8390 c3        1 7TM     -0.083000
     47 CAO        15.2910    2.4050    9.4200 ca        1 7TM     -0.212500
     48 CAQ        14.3820    1.6750    8.6670 ca        1 7TM      0.024500
     49 H1          4.6250    6.1930    1.8410 hc        1 7TM      0.079333
     50 H2          6.2060    5.5050    1.2860 hc        1 7TM      0.079333
     51 H3          5.9660    5.9310    3.0300 hc        1 7TM      0.079333
     52 H4          4.1850    4.1600    3.2150 hc        1 7TM      0.083500
     53 H5          4.4260    3.7340    1.4760 hc        1 7TM      0.083500
     54 H6          6.8270    3.1460    1.9530 hc        1 7TM      0.085000
     55 H7          6.5860    3.5730    3.6920 hc        1 7TM      0.085000
     56 H8          4.7750    1.8300    3.8690 hc        1 7TM      0.094000
     57 H9          5.0180    1.4020    2.1290 hc        1 7TM      0.094000
     58 H10         7.4170    0.8060    2.6000 hc        1 7TM      0.106500
     59 H11         7.1850    1.2510    4.3430 hc        1 7TM      0.106500
     60 H12         5.5390   -0.9180    2.8060 hx        1 7TM      0.146000
     61 H13         5.3650   -0.4870    4.5730 hx        1 7TM      0.146000
     62 H14         7.7220   -1.1700    4.8300 hn        1 7TM      0.287500
     63 H15         9.2300   -5.0230    4.1590 ha        1 7TM      0.155500
     64 H16        11.6670   -4.5480    4.5280 ha        1 7TM      0.172000
     65 H17         8.2080   -1.9260    7.0270 ha        1 7TM      0.155500
     66 H18        10.6430   -1.4080    7.3360 ha        1 7TM      0.172000
     67 H19        13.3900   -3.1780    5.4320 hc        1 7TM      0.108500
     68 H20        13.0410   -2.3670    7.0130 hc        1 7TM      0.108500
     69 H21        11.7530   -0.6020    5.3220 h1        1 7TM      0.055000
     70 H22        12.7510    0.7360    3.5320 hn        1 7TM      0.248000
     71 H23        13.6560   -2.0990    3.4350 hx        1 7TM      0.142000
     72 H24        12.6170    0.8300    1.2280 hx        1 7TM      0.128000
     73 H25        13.5110   -0.7750    1.0860 hx        1 7TM      0.128000
     74 H26         9.9980    0.5190    2.7240 h4        1 7TM      0.187000
     75 H27         9.4150   -3.4300    1.2230 h5        1 7TM      0.210000
     76 H28        12.5560   -2.6130   -0.3130 h1        1 7TM      0.111000
     77 H29        13.0420   -3.2040    1.3530 h1        1 7TM      0.111000
     78 H30        11.7030   -4.0510    0.4310 h1        1 7TM      0.111000
     79 H31        14.6860    1.1630    0.9780 ha        1 7TM      0.142000
     80 H32        16.9890    1.9910    0.9850 ha        1 7TM      0.162000
     81 H33        17.4070    0.8780    5.1450 ha        1 7TM      0.159000
     82 H34        15.3400   -1.2700    5.5170 h1        1 7TM      0.111500
     83 H35        15.6510    0.3030    6.3970 h1        1 7TM      0.111500
     84 H36        14.2970    3.5700    5.8310 ha        1 7TM      0.155000
     85 H37        15.9480    4.9040    7.1560 ha        1 7TM      0.161500
     86 H38        17.8500    4.8050   11.1340 h1        1 7TM      0.097333
     87 H39        17.6190    3.0000   10.8480 h1        1 7TM      0.097333
     88 H40        16.2300    4.0110   11.5040 h1        1 7TM      0.097333
     89 H41        15.5520    2.0770   10.4360 ha        1 7TM      0.161500
     90 H42        13.9190    0.7730    9.1070 ha        1 7TM      0.155000
     91 HBF2        7.8080   -1.6330    3.2160 hn        1 7TM      0.287500
@<TRIPOS>BOND
     1    1    2 1   
     2    1   49 1   
     3    1   50 1   
     4    1   51 1   
     5    2    3 1   
     6    2   52 1   
     7    2   53 1   
     8    3    4 1   
     9    3   54 1   
    10    3   55 1   
    11    4    5 1   
    12    4   56 1   
    13    4   57 1   
    14    5    6 1   
    15    5   58 1   
    16    5   59 1   
    17    6    7 1   
    18    6   60 1   
    19    6   61 1   
    20    7    8 1   
    21    7   62 1   
    22    7   91 1   
    23    8    9 1   
    24    8   10 1   
    25   10   11 1   
    26   11   12 1   
    27   11   14 1   
    28   12   13 1   
    29   12   63 1   
    30   13   16 1   
    31   13   64 1   
    32   14   15 1   
    33   14   65 1   
    34   15   16 1   
    35   15   66 1   
    36   16   17 1   
    37   17   18 1   
    38   17   67 1   
    39   17   68 1   
    40   18   19 1   
    41   18   37 1   
    42   18   69 1   
    43   19   20 1   
    44   19   71 1   
    45   20   21 1   
    46   20   28 1   
    47   20   70 1   
    48   21   22 1   
    49   21   72 1   
    50   21   73 1   
    51   22   23 1   
    52   22   26 1   
    53   23   24 1   
    54   23   74 1   
    55   24   25 1   
    56   25   26 1   
    57   25   75 1   
    58   26   27 1   
    59   27   76 1   
    60   27   77 1   
    61   27   78 1   
    62   28   29 1   
    63   28   35 1   
    64   29   30 1   
    65   29   79 1   
    66   30   31 1   
    67   30   80 1   
    68   31   32 1   
    69   31   34 1   
    70   32   33 1   
    71   34   35 1   
    72   34   81 1   
    73   35   36 1   
    74   36   37 1   
    75   36   82 1   
    76   36   83 1   
    77   37   38 1   
    78   38   39 1   
    79   38   40 1   
    80   38   41 1   
    81   41   42 1   
    82   41   48 1   
    83   42   43 1   
    84   42   84 1   
    85   43   44 1   
    86   43   85 1   
    87   44   45 1   
    88   44   47 1   
    89   45   46 1   
    90   46   86 1   
    91   46   87 1   
    92   46   88 1   
    93   47   48 1   
    94   47   89 1   
    95   48   90 1   
@<TRIPOS>SUBSTRUCTURE
     1 7TM         1 TEMP              0 ****  ****    0 ROOT
