@<TRIPOS>MOLECULE
7TO
   74    78     1     0     0
SMALL
bcc


@<TRIPOS>ATOM
      1 CAA        -0.7190    0.7030   -0.1500 c3        1 7TO      0.109700
      2 OBD         0.6240    1.1810   -0.1710 os        1 7TO     -0.320900
      3 CBH         1.4090    0.8540    0.9080 ca        1 7TO      0.193100
      4 CAR         2.7380    1.3220    0.8420 ca        1 7TO     -0.212000
      5 CAT         3.6000    1.0470    1.8910 ca        1 7TO      0.024500
      6 CAQ         0.9700    0.1110    2.0150 ca        1 7TO     -0.212000
      7 CAS         1.8600   -0.1470    3.0500 ca        1 7TO      0.024500
      8 CBK         3.1810    0.3180    3.0150 ca        1 7TO     -0.425500
      9 SBT         4.2600   -0.0590    4.2420 sy        1 7TO      1.513200
     10 OAF         3.7410   -1.1660    4.9500 o         1 7TO     -0.650800
     11 OAG         5.5490   -0.1950    3.6780 o         1 7TO     -0.650800
     12 NBP         4.2510    1.2510    5.2380 n3        1 7TO     -0.788500
     13 CAZ         3.0700    1.6510    5.9470 c3        1 7TO      0.277100
     14 CBJ         2.2340    2.7420    5.3260 ca        1 7TO     -0.163300
     15 CAX         0.8540    2.6240    5.5040 ca        1 7TO     -0.055000
     16 CBF        -0.0340    3.5640    4.9730 ca        1 7TO     -0.065000
     17 CAK        -1.4330    3.4170    5.1630 cg        1 7TO      0.240800
     18 NAC        -2.5800    3.2970    5.3170 n1        1 7TO     -0.372800
     19 CAL         0.4730    4.6460    4.2430 ca        1 7TO     -0.052000
     20 CAU         1.8400    4.7900    4.0690 ca        1 7TO     -0.208000
     21 CBM         2.7610    3.8510    4.6060 ca        1 7TO      0.221600
     22 NBO         4.1370    4.0070    4.3990 nh        1 7TO     -0.681000
     23 CBA         4.5750    5.0110    3.4500 c3        1 7TO      0.298100
     24 CBL         6.0110    4.9170    3.0690 cc        1 7TO     -0.251900
     25 CAV         6.7110    3.8490    2.4660 cd        1 7TO      0.322200
     26 NBC         8.0320    4.2120    2.2300 nd        1 7TO     -0.662000
     27 CAW         8.1520    5.4820    2.6750 cc        1 7TO      0.399400
     28 NBQ         6.9460    5.9590    3.2070 na        1 7TO     -0.201900
     29 CAB         6.7020    7.2630    3.7260 c3        1 7TO      0.020600
     30 CBB         5.0420    3.6090    5.4470 c3        1 7TO      0.204800
     31 CBN         5.4090    2.0940    5.4190 c3        1 7TO      0.226500
     32 CAY         6.1960    1.8300    6.7210 c3        1 7TO     -0.052100
     33 CBG         6.9270    0.5360    6.7390 ca        1 7TO     -0.088300
     34 CAN         7.9570    0.2900    5.8200 ca        1 7TO     -0.096500
     35 CAP         8.6880   -0.8930    5.8690 ca        1 7TO     -0.127000
     36 CAM         6.6290   -0.4250    7.7140 ca        1 7TO     -0.096500
     37 CAO         7.3530   -1.6120    7.7910 ca        1 7TO     -0.127000
     38 CBI         8.3840   -1.8300    6.8680 ca        1 7TO      0.123100
     39 OBE         9.2120   -2.9260    6.9750 os        1 7TO     -0.461800
     40 SBS         8.7570   -4.5110    7.0000 s6        1 7TO      1.487500
     41 OAD         9.8980   -5.1890    7.3200 o         1 7TO     -0.583800
     42 OAE         7.5710   -4.6260    7.6670 o         1 7TO     -0.583800
     43 CBR         8.4170   -4.8470    5.1190 c3        1 7TO      0.557700
     44 FAI         8.3230   -6.1890    4.8420 f         1 7TO     -0.225967
     45 FAJ         7.2530   -4.3090    4.6360 f         1 7TO     -0.225967
     46 FAH         9.3970   -4.3830    4.2800 f         1 7TO     -0.225967
     47 H1         -0.7380   -0.4130   -0.1210 h1        1 7TO      0.051700
     48 H2         -1.2740    1.1310    0.7200 h1        1 7TO      0.051700
     49 H3         -1.1410    1.0820   -1.1150 h1        1 7TO      0.051700
     50 H4          3.0680    1.8890   -0.0400 ha        1 7TO      0.152000
     51 H5          4.6480    1.3920    1.8360 ha        1 7TO      0.152000
     52 H6         -0.0590   -0.2700    2.0700 ha        1 7TO      0.152000
     53 H7          1.5260   -0.7480    3.9160 ha        1 7TO      0.152000
     54 H8          2.4230    0.7280    6.0710 h1        1 7TO      0.061200
     55 H9          3.3550    1.9920    6.9880 h1        1 7TO      0.061200
     56 H10         0.4540    1.7670    6.0710 ha        1 7TO      0.144000
     57 H11        -0.2150    5.3900    3.8120 ha        1 7TO      0.144000
     58 H12         2.1930    5.6640    3.5010 ha        1 7TO      0.138000
     59 H13         3.9700    4.8710    2.5030 h1        1 7TO      0.051200
     60 H14         4.3550    6.0470    3.8520 h1        1 7TO      0.051200
     61 H15         6.3330    2.8600    2.2030 h4        1 7TO      0.050100
     62 H16         9.0620    6.0900    2.6400 h5        1 7TO      0.065100
     63 H17         5.9550    7.8060    3.0850 h1        1 7TO      0.056033
     64 H18         6.2970    7.1930    4.7710 h1        1 7TO      0.056033
     65 H19         7.6620    7.8450    3.7420 h1        1 7TO      0.056033
     66 H20         6.0060    4.1840    5.3550 h1        1 7TO      0.055200
     67 H21         4.5910    3.8490    6.4540 h1        1 7TO      0.055200
     68 H22         6.1080    1.9140    4.5430 h1        1 7TO      0.089700
     69 H23         6.9490    2.6590    6.8310 hc        1 7TO      0.056200
     70 H24         5.5010    1.8910    7.6000 hc        1 7TO      0.056200
     71 H25         8.1810    1.0300    5.0350 ha        1 7TO      0.146500
     72 H26         9.4950   -1.0940    5.1490 ha        1 7TO      0.161000
     73 H27         5.8120   -0.2470    8.4300 ha        1 7TO      0.146500
     74 H28         7.1060   -2.3710    8.5490 ha        1 7TO      0.161000
@<TRIPOS>BOND
     1    1    2 1   
     2    1   47 1   
     3    1   48 1   
     4    1   49 1   
     5    2    3 1   
     6    3    4 ar  
     7    3    6 ar  
     8    4    5 ar  
     9    4   50 1   
    10    5    8 ar  
    11    5   51 1   
    12    6    7 ar  
    13    6   52 1   
    14    7    8 ar  
    15    7   53 1   
    16    8    9 1   
    17    9   10 2   
    18    9   11 2   
    19    9   12 1   
    20   12   13 1   
    21   12   31 1   
    22   13   14 1   
    23   13   54 1   
    24   13   55 1   
    25   14   15 ar  
    26   14   21 ar  
    27   15   16 ar  
    28   15   56 1   
    29   16   17 1   
    30   16   19 ar  
    31   17   18 3   
    32   19   20 ar  
    33   19   57 1   
    34   20   21 ar  
    35   20   58 1   
    36   21   22 1   
    37   22   23 1   
    38   22   30 1   
    39   23   24 1   
    40   23   59 1   
    41   23   60 1   
    42   24   25 2   
    43   24   28 1   
    44   25   26 1   
    45   25   61 1   
    46   26   27 2   
    47   27   28 1   
    48   27   62 1   
    49   28   29 1   
    50   29   63 1   
    51   29   64 1   
    52   29   65 1   
    53   30   31 1   
    54   30   66 1   
    55   30   67 1   
    56   31   32 1   
    57   31   68 1   
    58   32   33 1   
    59   32   69 1   
    60   32   70 1   
    61   33   34 ar  
    62   33   36 ar  
    63   34   35 ar  
    64   34   71 1   
    65   35   38 ar  
    66   35   72 1   
    67   36   37 ar  
    68   36   73 1   
    69   37   38 ar  
    70   37   74 1   
    71   38   39 1   
    72   39   40 1   
    73   40   41 2   
    74   40   42 2   
    75   40   43 1   
    76   43   44 1   
    77   43   45 1   
    78   43   46 1   
@<TRIPOS>SUBSTRUCTURE
     1 7TO         1 TEMP              0 ****  ****    0 ROOT
