@<TRIPOS>MOLECULE
7TO
   74    78     1     0     0
SMALL
bcc


@<TRIPOS>ATOM
      1 CAA         4.5880    4.5070   -3.4740 c3        1 7TO      0.109700
      2 OBD         4.1310    3.1770   -3.7120 os        1 7TO     -0.320900
      3 CBH         3.1360    2.7130   -2.8860 ca        1 7TO      0.193100
      4 CAR         2.6910    1.4040   -3.1670 ca        1 7TO     -0.212000
      5 CAT         1.6960    0.8500   -2.3790 ca        1 7TO      0.025500
      6 CAQ         2.5720    3.4460   -1.8310 ca        1 7TO     -0.212000
      7 CAS         1.5760    2.8600   -1.0590 ca        1 7TO      0.025500
      8 CBK         1.1260    1.5570   -1.3090 ca        1 7TO     -0.426500
      9 SBT        -0.1230    0.8920   -0.4090 sy        1 7TO      1.513200
     10 OAF        -0.8200    1.9510    0.2130 o         1 7TO     -0.652800
     11 OAG        -0.8680    0.0290   -1.2480 o         1 7TO     -0.652800
     12 NBP         0.6120   -0.0120    0.7520 n3        1 7TO     -0.786500
     13 CAZ         1.4210    0.5860    1.7750 c3        1 7TO      0.276100
     14 CBJ         2.9110    0.6160    1.5380 ca        1 7TO     -0.163300
     15 CAX         3.5780    1.7410    2.0280 ca        1 7TO     -0.056000
     16 CBF         4.9580    1.8970    1.8730 ca        1 7TO     -0.064000
     17 CAK         5.6110    3.0530    2.3760 cg        1 7TO      0.239800
     18 NAC         6.1470    4.0010    2.7850 n1        1 7TO     -0.371800
     19 CAL         5.6870    0.9030    1.2090 ca        1 7TO     -0.053000
     20 CAU         5.0460   -0.2280    0.7290 ca        1 7TO     -0.207000
     21 CBM         3.6450   -0.4110    0.8810 ca        1 7TO      0.217600
     22 NBO         3.0150   -1.5510    0.3620 nh        1 7TO     -0.676000
     23 CBA         3.7990   -2.4330   -0.4800 c3        1 7TO      0.294100
     24 CBL         3.0080   -3.4680   -1.1990 cc        1 7TO     -0.251900
     25 CAV         1.9670   -3.3070   -2.1390 cd        1 7TO      0.322200
     26 NBC         1.5480   -4.5450   -2.6110 nd        1 7TO     -0.662000
     27 CAW         2.3140   -5.4600   -1.9790 cc        1 7TO      0.400400
     28 NBQ         3.2190   -4.8550   -1.0960 na        1 7TO     -0.201900
     29 CAB         4.1990   -5.5140   -0.3000 c3        1 7TO      0.020600
     30 CBB         1.9110   -2.1140    1.0990 c3        1 7TO      0.199800
     31 CBN         0.5370   -1.4530    0.7730 c3        1 7TO      0.228500
     32 CAY        -0.4520   -2.0350    1.8030 c3        1 7TO     -0.051100
     33 CBG        -1.8820   -1.6800    1.6040 ca        1 7TO     -0.086300
     34 CAN        -2.5050   -1.8220    0.3570 ca        1 7TO     -0.100500
     35 CAP        -3.8660   -1.5670    0.2080 ca        1 7TO     -0.127500
     36 CAM        -2.6390   -1.2620    2.7080 ca        1 7TO     -0.100500
     37 CAO        -4.0030   -1.0100    2.5870 ca        1 7TO     -0.127500
     38 CBI        -4.6060   -1.1760    1.3330 ca        1 7TO      0.119100
     39 OBE        -5.9710   -1.0640    1.1840 os        1 7TO     -0.459800
     40 SBS        -6.8990    0.2430    1.5740 s6        1 7TO      1.485500
     41 OAD        -8.1850   -0.2030    1.4670 o         1 7TO     -0.584800
     42 OAE        -6.3770    0.8500    2.6800 o         1 7TO     -0.584800
     43 CBR        -6.5820    1.4080    0.0550 c3        1 7TO      0.557700
     44 FAI        -7.4800    2.4460    0.0030 f         1 7TO     -0.225967
     45 FAJ        -5.3510    2.0090    0.0360 f         1 7TO     -0.225967
     46 FAH        -6.6920    0.7870   -1.1620 f         1 7TO     -0.225967
     47 H1          3.7530    5.2370   -3.6050 h1        1 7TO      0.051700
     48 H2          5.0320    4.5920   -2.4540 h1        1 7TO      0.051700
     49 H3          5.3700    4.6530   -4.2620 h1        1 7TO      0.051700
     50 H4          3.1330    0.8510   -4.0070 ha        1 7TO      0.152500
     51 H5          1.3260   -0.1660   -2.6070 ha        1 7TO      0.152000
     52 H6          2.9030    4.4700   -1.6120 ha        1 7TO      0.152500
     53 H7          1.1140    3.4390   -0.2380 ha        1 7TO      0.152000
     54 H8          1.0560    1.6500    1.9140 h1        1 7TO      0.063200
     55 H9          1.2430    0.0490    2.7550 h1        1 7TO      0.063200
     56 H10         3.0020    2.5280    2.5440 ha        1 7TO      0.145000
     57 H11         6.7740    1.0150    1.0730 ha        1 7TO      0.145000
     58 H12         5.6630   -0.9880    0.2270 ha        1 7TO      0.138000
     59 H13         4.3000   -1.7920   -1.2680 h1        1 7TO      0.051700
     60 H14         4.6130   -2.9330    0.1300 h1        1 7TO      0.051700
     61 H15         1.5110   -2.3780   -2.4830 h4        1 7TO      0.049100
     62 H16         2.2600   -6.5460   -2.1150 h5        1 7TO      0.065100
     63 H17         5.2330   -5.2250   -0.6340 h1        1 7TO      0.056033
     64 H18         4.0760   -5.2280    0.7790 h1        1 7TO      0.056033
     65 H19         4.0800   -6.6250   -0.4020 h1        1 7TO      0.056033
     66 H20         1.8130   -3.2100    0.8610 h1        1 7TO      0.054700
     67 H21         2.1010   -2.0180    2.2080 h1        1 7TO      0.054700
     68 H22         0.2180   -1.7960   -0.2600 h1        1 7TO      0.087700
     69 H23        -0.3660   -3.1560    1.7420 hc        1 7TO      0.056200
     70 H24        -0.1290   -1.7320    2.8350 hc        1 7TO      0.056200
     71 H25        -1.9160   -2.1070   -0.5310 ha        1 7TO      0.152500
     72 H26        -4.3590   -1.6770   -0.7690 ha        1 7TO      0.161000
     73 H27        -2.1550   -1.1310    3.6880 ha        1 7TO      0.152500
     74 H28        -4.5900   -0.6710    3.4540 ha        1 7TO      0.161000
@<TRIPOS>BOND
     1    1    2 1   
     2    1   47 1   
     3    1   48 1   
     4    1   49 1   
     5    2    3 1   
     6    3    4 ar  
     7    3    6 ar  
     8    4    5 ar  
     9    4   50 1   
    10    5    8 ar  
    11    5   51 1   
    12    6    7 ar  
    13    6   52 1   
    14    7    8 ar  
    15    7   53 1   
    16    8    9 1   
    17    9   10 2   
    18    9   11 2   
    19    9   12 1   
    20   12   13 1   
    21   12   31 1   
    22   13   14 1   
    23   13   54 1   
    24   13   55 1   
    25   14   15 ar  
    26   14   21 ar  
    27   15   16 ar  
    28   15   56 1   
    29   16   17 1   
    30   16   19 ar  
    31   17   18 3   
    32   19   20 ar  
    33   19   57 1   
    34   20   21 ar  
    35   20   58 1   
    36   21   22 1   
    37   22   23 1   
    38   22   30 1   
    39   23   24 1   
    40   23   59 1   
    41   23   60 1   
    42   24   25 2   
    43   24   28 1   
    44   25   26 1   
    45   25   61 1   
    46   26   27 2   
    47   27   28 1   
    48   27   62 1   
    49   28   29 1   
    50   29   63 1   
    51   29   64 1   
    52   29   65 1   
    53   30   31 1   
    54   30   66 1   
    55   30   67 1   
    56   31   32 1   
    57   31   68 1   
    58   32   33 1   
    59   32   69 1   
    60   32   70 1   
    61   33   34 ar  
    62   33   36 ar  
    63   34   35 ar  
    64   34   71 1   
    65   35   38 ar  
    66   35   72 1   
    67   36   37 ar  
    68   36   73 1   
    69   37   38 ar  
    70   37   74 1   
    71   38   39 1   
    72   39   40 1   
    73   40   41 2   
    74   40   42 2   
    75   40   43 1   
    76   43   44 1   
    77   43   45 1   
    78   43   46 1   
@<TRIPOS>SUBSTRUCTURE
     1 7TO         1 TEMP              0 ****  ****    0 ROOT
