@<TRIPOS>MOLECULE
7TO
   74    78     1     0     0
SMALL
bcc


@<TRIPOS>ATOM
      1 CAA        -0.6190    0.8730   -0.2570 c3        1 7TO      0.109700
      2 OBD         0.7140    1.3800   -0.2670 os        1 7TO     -0.320900
      3 CBH         1.5200    1.0090    0.7810 ca        1 7TO      0.193100
      4 CAR         2.8390    1.5070    0.7240 ca        1 7TO     -0.212000
      5 CAT         3.7210    1.1920    1.7430 ca        1 7TO      0.025500
      6 CAQ         1.1120    0.1960    1.8500 ca        1 7TO     -0.212000
      7 CAS         2.0220   -0.1010    2.8570 ca        1 7TO      0.025500
      8 CBK         3.3330    0.3930    2.8300 ca        1 7TO     -0.426500
      9 SBT         4.4350   -0.0320    4.0200 sy        1 7TO      1.513200
     10 OAF         3.9540   -1.1950    4.6600 o         1 7TO     -0.652800
     11 OAG         5.7220   -0.0980    3.4340 o         1 7TO     -0.652800
     12 NBP         4.4130    1.2120    5.0960 n3        1 7TO     -0.786500
     13 CAZ         3.2480    1.5160    5.8750 c3        1 7TO      0.276100
     14 CBJ         2.3340    2.5950    5.3470 ca        1 7TO     -0.163300
     15 CAX         0.9720    2.4010    5.5820 ca        1 7TO     -0.056000
     16 CBF         0.0150    3.3210    5.1430 ca        1 7TO     -0.064000
     17 CAK        -1.3640    3.0970    5.3910 cg        1 7TO      0.239800
     18 NAC        -2.4960    2.9140    5.5910 n1        1 7TO     -0.371800
     19 CAL         0.4360    4.4620    4.4490 ca        1 7TO     -0.053000
     20 CAU         1.7850    4.6810    4.2180 ca        1 7TO     -0.207000
     21 CBM         2.7740    3.7620    4.6610 ca        1 7TO      0.217600
     22 NBO         4.1310    3.9910    4.3920 nh        1 7TO     -0.676000
     23 CBA         4.4690    5.0850    3.5020 c3        1 7TO      0.294100
     24 CBL         5.8890    5.1070    3.0590 cc        1 7TO     -0.251900
     25 CAV         6.6150    4.1390    2.3320 cd        1 7TO      0.322200
     26 NBC         7.9030    4.5940    2.0750 nd        1 7TO     -0.662000
     27 CAW         7.9780    5.8230    2.6310 cc        1 7TO      0.400400
     28 NBQ         6.7750    6.1820    3.2550 na        1 7TO     -0.201900
     29 CAB         6.4880    7.4180    3.9020 c3        1 7TO      0.020600
     30 CBB         5.0990    3.5950    5.3840 c3        1 7TO      0.199800
     31 CBN         5.5360    2.1020    5.2720 c3        1 7TO      0.228500
     32 CAY         6.3870    1.8290    6.5300 c3        1 7TO     -0.051100
     33 CBG         7.0620    0.5060    6.5840 ca        1 7TO     -0.086300
     34 CAN         7.8140    0.0240    5.5050 ca        1 7TO     -0.100500
     35 CAP         8.5120   -1.1780    5.6040 ca        1 7TO     -0.127500
     36 CAM         7.0020   -0.2410    7.7690 ca        1 7TO     -0.100500
     37 CAO         7.6980   -1.4390    7.8960 ca        1 7TO     -0.127500
     38 CBI         8.4570   -1.8920    6.8090 ca        1 7TO      0.119100
     39 OBE         9.2640   -3.0030    6.9220 os        1 7TO     -0.459800
     40 SBS         8.7900   -4.5220    7.3570 s6        1 7TO      1.485500
     41 OAD         9.9570   -5.2040    7.5510 o         1 7TO     -0.584800
     42 OAE         7.7820   -4.4320    8.2740 o         1 7TO     -0.584800
     43 CBR         8.0270   -5.1790    5.6990 c3        1 7TO      0.557700
     44 FAI         7.8250   -6.5370    5.7240 f         1 7TO     -0.225967
     45 FAJ         6.8040   -4.6490    5.3780 f         1 7TO     -0.225967
     46 FAH         8.8090   -4.9590    4.5940 f         1 7TO     -0.225967
     47 H1         -1.0620    1.2960   -1.1930 h1        1 7TO      0.051700
     48 H2         -0.6140   -0.2440   -0.2900 h1        1 7TO      0.051700
     49 H3         -1.1710    1.2390    0.6430 h1        1 7TO      0.051700
     50 H4          3.1450    2.1290   -0.1290 ha        1 7TO      0.152500
     51 H5          4.7620    1.5600    1.6940 ha        1 7TO      0.152000
     52 H6          0.0910   -0.2070    1.8970 ha        1 7TO      0.152500
     53 H7          1.7120   -0.7560    3.6920 ha        1 7TO      0.152000
     54 H8          3.5630    1.8190    6.9190 h1        1 7TO      0.063200
     55 H9          2.6520    0.5580    5.9790 h1        1 7TO      0.063200
     56 H10         0.6400    1.4980    6.1220 ha        1 7TO      0.145000
     57 H11        -0.3060    5.1930    4.0910 ha        1 7TO      0.145000
     58 H12         2.0670    5.5990    3.6810 ha        1 7TO      0.138000
     59 H13         4.2060    6.0760    3.9850 h1        1 7TO      0.051700
     60 H14         3.8320    4.9730    2.5720 h1        1 7TO      0.051700
     61 H15         6.2770    3.1580    1.9940 h4        1 7TO      0.049100
     62 H16         8.8530    6.4820    2.6160 h5        1 7TO      0.065100
     63 H17         5.6880    7.9760    3.3440 h1        1 7TO      0.056033
     64 H18         6.1320    7.2310    4.9510 h1        1 7TO      0.056033
     65 H19         7.4170    8.0470    3.9360 h1        1 7TO      0.056033
     66 H20         4.6820    3.7700    6.4190 h1        1 7TO      0.054700
     67 H21         6.0300    4.2180    5.2790 h1        1 7TO      0.054700
     68 H22         6.2040    1.9980    4.3620 h1        1 7TO      0.087700
     69 H23         5.7450    1.9620    7.4430 hc        1 7TO      0.056200
     70 H24         7.1840    2.6230    6.5630 hc        1 7TO      0.056200
     71 H25         7.8370    0.5760    4.5500 ha        1 7TO      0.152500
     72 H26         9.1040   -1.5600    4.7590 ha        1 7TO      0.161000
     73 H27         6.3990    0.1210    8.6170 ha        1 7TO      0.152500
     74 H28         7.6370   -2.0280    8.8240 ha        1 7TO      0.161000
@<TRIPOS>BOND
     1    1    2 1   
     2    1   47 1   
     3    1   48 1   
     4    1   49 1   
     5    2    3 1   
     6    3    4 ar  
     7    3    6 ar  
     8    4    5 ar  
     9    4   50 1   
    10    5    8 ar  
    11    5   51 1   
    12    6    7 ar  
    13    6   52 1   
    14    7    8 ar  
    15    7   53 1   
    16    8    9 1   
    17    9   10 2   
    18    9   11 2   
    19    9   12 1   
    20   12   13 1   
    21   12   31 1   
    22   13   14 1   
    23   13   54 1   
    24   13   55 1   
    25   14   15 ar  
    26   14   21 ar  
    27   15   16 ar  
    28   15   56 1   
    29   16   17 1   
    30   16   19 ar  
    31   17   18 3   
    32   19   20 ar  
    33   19   57 1   
    34   20   21 ar  
    35   20   58 1   
    36   21   22 1   
    37   22   23 1   
    38   22   30 1   
    39   23   24 1   
    40   23   59 1   
    41   23   60 1   
    42   24   25 2   
    43   24   28 1   
    44   25   26 1   
    45   25   61 1   
    46   26   27 2   
    47   27   28 1   
    48   27   62 1   
    49   28   29 1   
    50   29   63 1   
    51   29   64 1   
    52   29   65 1   
    53   30   31 1   
    54   30   66 1   
    55   30   67 1   
    56   31   32 1   
    57   31   68 1   
    58   32   33 1   
    59   32   69 1   
    60   32   70 1   
    61   33   34 ar  
    62   33   36 ar  
    63   34   35 ar  
    64   34   71 1   
    65   35   38 ar  
    66   35   72 1   
    67   36   37 ar  
    68   36   73 1   
    69   37   38 ar  
    70   37   74 1   
    71   38   39 1   
    72   39   40 1   
    73   40   41 2   
    74   40   42 2   
    75   40   43 1   
    76   43   44 1   
    77   43   45 1   
    78   43   46 1   
@<TRIPOS>SUBSTRUCTURE
     1 7TO         1 TEMP              0 ****  ****    0 ROOT
