@<TRIPOS>MOLECULE
7TO
   74    78     1     0     0
SMALL
bcc


@<TRIPOS>ATOM
      1 CAA        -0.6390    0.8400   -0.2330 c3        1 7TO      0.109700
      2 OBD         0.6950    1.3440   -0.2530 os        1 7TO     -0.320900
      3 CBH         1.5050    0.9800    0.7950 ca        1 7TO      0.193100
      4 CAR         2.8240    1.4750    0.7270 ca        1 7TO     -0.212000
      5 CAT         3.7100    1.1660    1.7460 ca        1 7TO      0.025500
      6 CAQ         1.0990    0.1780    1.8720 ca        1 7TO     -0.212000
      7 CAS         2.0120   -0.1120    2.8780 ca        1 7TO      0.025500
      8 CBK         3.3240    0.3780    2.8420 ca        1 7TO     -0.426500
      9 SBT         4.4300   -0.0380    4.0320 sy        1 7TO      1.513200
     10 OAF         3.9490   -1.1940    4.6840 o         1 7TO     -0.652800
     11 OAG         5.7150   -0.1140    3.4410 o         1 7TO     -0.652800
     12 NBP         4.4160    1.2160    5.0960 n3        1 7TO     -0.786500
     13 CAZ         3.2530    1.5320    5.8750 c3        1 7TO      0.276100
     14 CBJ         2.3430    2.6100    5.3390 ca        1 7TO     -0.163300
     15 CAX         0.9810    2.4230    5.5800 ca        1 7TO     -0.056000
     16 CBF         0.0270    3.3440    5.1340 ca        1 7TO     -0.064000
     17 CAK        -1.3530    3.1280    5.3870 cg        1 7TO      0.239800
     18 NAC        -2.4850    2.9520    5.5920 n1        1 7TO     -0.371800
     19 CAL         0.4510    4.4760    4.4290 ca        1 7TO     -0.053000
     20 CAU         1.8000    4.6870    4.1930 ca        1 7TO     -0.207000
     21 CBM         2.7860    3.7680    4.6410 ca        1 7TO      0.217600
     22 NBO         4.1430    3.9890    4.3670 nh        1 7TO     -0.676000
     23 CBA         4.4840    5.0730    3.4650 c3        1 7TO      0.294100
     24 CBL         5.9030    5.0830    3.0180 cc        1 7TO     -0.251900
     25 CAV         6.6220    4.1040    2.3000 cd        1 7TO      0.322200
     26 NBC         7.9120    4.5510    2.0350 nd        1 7TO     -0.662000
     27 CAW         7.9930    5.7860    2.5750 cc        1 7TO      0.400400
     28 NBQ         6.7930    6.1570    3.1980 na        1 7TO     -0.201900
     29 CAB         6.5140    7.4020    3.8310 c3        1 7TO      0.020600
     30 CBB         5.1120    3.5980    5.3600 c3        1 7TO      0.199800
     31 CBN         5.5430    2.1020    5.2610 c3        1 7TO      0.228500
     32 CAY         6.3960    1.8380    6.5190 c3        1 7TO     -0.051100
     33 CBG         7.0660    0.5130    6.5820 ca        1 7TO     -0.086300
     34 CAN         7.8140    0.0180    5.5050 ca        1 7TO     -0.100500
     35 CAP         8.5080   -1.1850    5.6120 ca        1 7TO     -0.127500
     36 CAM         7.0070   -0.2240    7.7730 ca        1 7TO     -0.100500
     37 CAO         7.6980   -1.4250    7.9090 ca        1 7TO     -0.127500
     38 CBI         8.4530   -1.8890    6.8230 ca        1 7TO      0.119100
     39 OBE         9.2550   -3.0030    6.9440 os        1 7TO     -0.459800
     40 SBS         8.7770   -4.5160    7.3920 s6        1 7TO      1.485500
     41 OAD         9.9410   -5.2010    7.5890 o         1 7TO     -0.584800
     42 OAE         7.7700   -4.4150    8.3090 o         1 7TO     -0.584800
     43 CBR         8.0080   -5.1830    5.7400 c3        1 7TO      0.557700
     44 FAI         7.8020   -6.5400    5.7750 f         1 7TO     -0.225967
     45 FAJ         6.7870   -4.6520    5.4170 f         1 7TO     -0.225967
     46 FAH         8.7890   -4.9740    4.6320 f         1 7TO     -0.225967
     47 H1         -0.6370   -0.2770   -0.2570 h1        1 7TO      0.051700
     48 H2         -1.1860    1.2150    0.6650 h1        1 7TO      0.051700
     49 H3         -1.0850    1.2560   -1.1720 h1        1 7TO      0.051700
     50 H4          3.1290    2.0880   -0.1320 ha        1 7TO      0.152500
     51 H5          4.7510    1.5310    1.6900 ha        1 7TO      0.152000
     52 H6          0.0770   -0.2230    1.9280 ha        1 7TO      0.152500
     53 H7          1.7040   -0.7590    3.7200 ha        1 7TO      0.152000
     54 H8          2.6540    0.5770    5.9890 h1        1 7TO      0.063200
     55 H9          3.5730    1.8430    6.9150 h1        1 7TO      0.063200
     56 H10         0.6460    1.5270    6.1280 ha        1 7TO      0.145000
     57 H11        -0.2890    5.2070    4.0650 ha        1 7TO      0.145000
     58 H12         2.0850    5.5990    3.6460 ha        1 7TO      0.138000
     59 H13         3.8440    4.9550    2.5380 h1        1 7TO      0.051700
     60 H14         4.2280    6.0690    3.9390 h1        1 7TO      0.051700
     61 H15         6.2790    3.1210    1.9760 h4        1 7TO      0.049100
     62 H16         8.8710    6.4410    2.5500 h5        1 7TO      0.065100
     63 H17         5.7130    7.9560    3.2690 h1        1 7TO      0.056033
     64 H18         6.1610    7.2290    4.8840 h1        1 7TO      0.056033
     65 H19         7.4450    8.0290    3.8540 h1        1 7TO      0.056033
     66 H20         6.0460    4.2170    5.2470 h1        1 7TO      0.054700
     67 H21         4.6990    3.7840    6.3940 h1        1 7TO      0.054700
     68 H22         6.2080    1.9870    4.3490 h1        1 7TO      0.087700
     69 H23         7.1970    2.6290    6.5430 hc        1 7TO      0.056200
     70 H24         5.7580    1.9810    7.4320 hc        1 7TO      0.056200
     71 H25         7.8370    0.5620    4.5460 ha        1 7TO      0.152500
     72 H26         9.0960   -1.5770    4.7690 ha        1 7TO      0.161000
     73 H27         6.4070    0.1460    8.6190 ha        1 7TO      0.152500
     74 H28         7.6380   -2.0050    8.8420 ha        1 7TO      0.161000
@<TRIPOS>BOND
     1    1    2 1   
     2    1   47 1   
     3    1   48 1   
     4    1   49 1   
     5    2    3 1   
     6    3    4 ar  
     7    3    6 ar  
     8    4    5 ar  
     9    4   50 1   
    10    5    8 ar  
    11    5   51 1   
    12    6    7 ar  
    13    6   52 1   
    14    7    8 ar  
    15    7   53 1   
    16    8    9 1   
    17    9   10 2   
    18    9   11 2   
    19    9   12 1   
    20   12   13 1   
    21   12   31 1   
    22   13   14 1   
    23   13   54 1   
    24   13   55 1   
    25   14   15 ar  
    26   14   21 ar  
    27   15   16 ar  
    28   15   56 1   
    29   16   17 1   
    30   16   19 ar  
    31   17   18 3   
    32   19   20 ar  
    33   19   57 1   
    34   20   21 ar  
    35   20   58 1   
    36   21   22 1   
    37   22   23 1   
    38   22   30 1   
    39   23   24 1   
    40   23   59 1   
    41   23   60 1   
    42   24   25 2   
    43   24   28 1   
    44   25   26 1   
    45   25   61 1   
    46   26   27 2   
    47   27   28 1   
    48   27   62 1   
    49   28   29 1   
    50   29   63 1   
    51   29   64 1   
    52   29   65 1   
    53   30   31 1   
    54   30   66 1   
    55   30   67 1   
    56   31   32 1   
    57   31   68 1   
    58   32   33 1   
    59   32   69 1   
    60   32   70 1   
    61   33   34 ar  
    62   33   36 ar  
    63   34   35 ar  
    64   34   71 1   
    65   35   38 ar  
    66   35   72 1   
    67   36   37 ar  
    68   36   73 1   
    69   37   38 ar  
    70   37   74 1   
    71   38   39 1   
    72   39   40 1   
    73   40   41 2   
    74   40   42 2   
    75   40   43 1   
    76   43   44 1   
    77   43   45 1   
    78   43   46 1   
@<TRIPOS>SUBSTRUCTURE
     1 7TO         1 TEMP              0 ****  ****    0 ROOT
