@<TRIPOS>MOLECULE
7TO
   74    65     1     0     0
SMALL
bcc


@<TRIPOS>ATOM
      1 CAA        -2.9880    0.6230   -6.9830 c3        1 7TO     -0.080000
      2 OBD        -2.3850    1.8880   -6.6870 os        1 7TO     -0.202000
      3 CBH        -1.4510    1.8510   -5.5540 c2        1 7TO      0.146000
      4 CAR        -1.9390    1.9200   -4.2380 c2        1 7TO     -0.235000
      5 CAT        -1.0590    1.8710   -3.1650 c1        1 7TO      0.018000
      6 CAQ        -0.0930    1.7350   -5.7820 c1        1 7TO     -0.185000
      7 CAS         0.7890    1.6860   -4.7090 c1        1 7TO      0.015000
      8 CBK         0.2940    1.7550   -3.3880 c1        1 7TO     -0.867000
      9 SBT         1.4390    1.9180   -2.0040 s4        1 7TO      2.066800
     10 OAF         2.7570    2.2240   -2.4540 o         1 7TO     -0.539400
     11 OAG         1.1390    3.0750   -1.2160 o         1 7TO     -0.539400
     12 NBP         1.4200    0.5330   -1.0760 n2        1 7TO     -0.824000
     13 CAZ         1.6450   -0.7620   -1.5770 c3        1 7TO      0.027000
     14 CBJ         2.9150   -1.3660   -0.9620 c1        1 7TO     -0.140000
     15 CAX         3.7850   -1.9180   -1.9180 c1        1 7TO     -0.060000
     16 CBF         4.3630   -3.1980   -1.7000 c1        1 7TO     -0.022000
     17 CAK         5.1950   -3.8240   -2.7650 c1        1 7TO     -0.095000
     18 NAC         5.8380   -4.3080   -3.5860 n1        1 7TO     -0.034000
     19 CAL         4.0630   -3.9170   -0.5200 c2        1 7TO     -0.081000
     20 CAU         3.1990   -3.3700    0.4300 c1        1 7TO     -0.133000
     21 CBM         2.6160   -2.0800    0.2100 c1        1 7TO      0.077000
     22 NBO         2.6460   -1.1990    1.3830 n3        1 7TO     -0.273000
     23 CBA         1.5370   -1.5180    2.2580 c3        1 7TO      0.041000
     24 CBL         1.9830   -2.5550    3.2710 c2        1 7TO     -0.140000
     25 CAV         3.2840   -2.8430    3.6130 c1        1 7TO     -0.150000
     26 NBC         3.2640   -3.8360    4.5230 n2        1 7TO     -0.144000
     27 CAW         1.9620   -4.1700    4.7520 c1        1 7TO     -0.091000
     28 NBQ         1.1760   -3.3720    3.9720 n2        1 7TO     -0.158000
     29 CAB        -0.2180   -3.3370    3.9770 c2        1 7TO     -0.075000
     30 CBB         2.5710    0.2070    0.9870 c3        1 7TO     -0.059000
     31 CBN         1.2600    0.5090    0.3520 c3        1 7TO      0.021000
     32 CAY         0.7420    1.8850    0.8400 c3        1 7TO     -0.152000
     33 CBG        -0.7740    1.7760    1.1660 c2        1 7TO     -0.059000
     34 CAN        -1.1950    1.0510    2.2690 c2        1 7TO     -0.109000
     35 CAP        -2.5400    1.0940    2.6660 c1        1 7TO     -0.107000
     36 CAM        -1.6940    2.5510    0.4480 c1        1 7TO     -0.119000
     37 CAO        -3.0310    2.5950    0.8410 c1        1 7TO     -0.138000
     38 CBI        -3.4550    1.8690    1.9470 c1        1 7TO      0.045000
     39 OBE        -4.8270    1.9330    2.3660 o         1 7TO     -0.784000
     40 SBS        -5.1440    2.9290    3.5100 s4        1 7TO      2.700000
     41 OAD        -4.6430    4.2890    3.1980 o         1 7TO     -0.784000
     42 OAE        -4.3680    2.6090    4.7300 o         1 7TO     -0.784000
     43 CBR        -6.9020    2.9500    3.8430 c2        1 7TO     -0.087000
     44 FAI        -7.1130    3.2930    5.1440 f         1 7TO     -0.152667
     45 FAJ        -7.3990    1.7690    3.6170 f         1 7TO     -0.152667
     46 FAH        -7.5060    3.8590    3.0310 f         1 7TO     -0.152667
     47 H1         -2.8090    0.3830   -7.9340 h1        1 7TO      0.091667
     48 H2         -3.9340    0.6790   -6.8430 h1        1 7TO      0.091667
     49 H3         -2.6210   -0.0450   -6.4120 h1        1 7TO      0.091667
     50 H4         -2.9130    2.0060   -4.0740 ha        1 7TO      0.149000
     51 H5         -1.4070    1.9190   -2.2350 ha        1 7TO      0.162000
     52 H6          0.2640    1.6830   -6.7440 ha        1 7TO      0.159000
     53 H7          1.7800    1.6010   -4.8740 ha        1 7TO      0.141000
     54 H8          0.8880   -1.3210   -1.3390 h1        1 7TO      0.100000
     55 H9          1.7650   -0.7100   -2.5600 h1        1 7TO      0.100000
     56 H10         4.0470   -1.3950   -2.6870 ha        1 7TO      0.159000
     57 H11         4.4780   -4.8270   -0.3600 ha        1 7TO      0.149000
     58 H12         2.9930   -3.8630    1.2370 ha        1 7TO      0.154000
     59 H13         0.7640   -1.8900    1.7090 h1        1 7TO      0.082500
     60 H14         1.2340   -0.6720    2.7450 h1        1 7TO      0.082500
     61 H15         4.1060   -2.3910    3.2480 DU        1 7TO      0.193500
     62 H16         1.6360   -4.8820    5.3850 DU        1 7TO      0.193500
     63 H17        -0.5340   -2.6660    3.3160 ha        1 7TO      0.092667
     64 H18        -0.5710   -4.2290    3.7370 ha        1 7TO      0.092667
     65 H19        -0.5430   -3.0830    4.8950 ha        1 7TO      0.092667
     66 H20         3.2880    0.3980    0.3520 h1        1 7TO      0.115000
     67 H21         2.6860    0.7730    1.7820 h1        1 7TO      0.115000
     68 H22         0.6220   -0.1750    0.5920 h1        1 7TO      0.089000
     69 H23         1.2430    2.1640    1.6650 hc        1 7TO      0.115500
     70 H24         0.8780    2.5630    0.1240 hc        1 7TO      0.115500
     71 H25        -0.5750    0.5270    2.7550 ha        1 7TO      0.153000
     72 H26        -2.8400    0.5800    3.4490 ha        1 7TO      0.165000
     73 H27        -1.4040    3.0490   -0.3110 ha        1 7TO      0.145000
     74 H28        -3.6860    3.1500    0.3260 ha        1 7TO      0.160000
@<TRIPOS>BOND
     1    1    2 1   
     2    1   47 1   
     3    1   48 1   
     4    1   49 1   
     5    2    3 1   
     6    3    4 1   
     7    3    6 1   
     8    4    5 1   
     9    4   50 1   
    10    5   51 1   
    11    6   52 1   
    12    7    8 1   
    13    7   53 1   
    14    8    9 1   
    15    9   10 1   
    16    9   11 1   
    17   12   13 1   
    18   12   31 1   
    19   13   14 1   
    20   13   54 1   
    21   13   55 1   
    22   14   21 1   
    23   15   16 1   
    24   15   56 1   
    25   16   19 1   
    26   17   18 1   
    27   19   20 1   
    28   19   57 1   
    29   20   58 1   
    30   21   22 1   
    31   22   23 1   
    32   22   30 1   
    33   23   24 1   
    34   23   59 1   
    35   23   60 1   
    36   24   25 1   
    37   24   28 1   
    38   25   26 1   
    39   26   27 1   
    40   27   28 1   
    41   29   63 1   
    42   29   64 1   
    43   29   65 1   
    44   30   31 1   
    45   30   66 1   
    46   30   67 1   
    47   31   32 1   
    48   31   68 1   
    49   32   33 1   
    50   32   69 1   
    51   32   70 1   
    52   33   34 1   
    53   33   36 1   
    54   34   35 1   
    55   34   71 1   
    56   35   72 1   
    57   36   73 1   
    58   37   38 1   
    59   37   74 1   
    60   39   40 1   
    61   40   41 1   
    62   40   42 1   
    63   43   44 1   
    64   43   45 1   
    65   43   46 1   
@<TRIPOS>SUBSTRUCTURE
     1 7TO         1 TEMP              0 ****  ****    0 ROOT
