@<TRIPOS>MOLECULE
7TP
   76    81     1     0     0
SMALL
bcc


@<TRIPOS>ATOM
      1 CAA         0.2170    0.8930   -0.6720 c3        1 7TP      0.109700
      2 OBB         1.6200    1.1000   -0.5320 os        1 7TP     -0.321900
      3 CBG         2.1670    0.7910    0.6920 ca        1 7TP      0.189100
      4 CAN         3.5630    0.9680    0.7810 ca        1 7TP     -0.214000
      5 CAQ         4.1990    0.6890    1.9800 ca        1 7TP      0.023500
      6 CAM         1.4340    0.3310    1.7960 ca        1 7TP     -0.214000
      7 CAP         2.1030    0.0640    2.9850 ca        1 7TP      0.023500
      8 CBJ         3.4850    0.2440    3.1040 ca        1 7TP     -0.419500
      9 SBR         4.2970   -0.1350    4.5250 sy        1 7TP      1.511200
     10 OAD         3.5360   -1.1080    5.2130 o         1 7TP     -0.653300
     11 OAE         5.6260   -0.4800    4.1790 o         1 7TP     -0.653300
     12 NBP         4.3080    1.2500    5.4050 n3        1 7TP     -0.780500
     13 CAX         3.1480    1.6940    6.1230 c3        1 7TP      0.269100
     14 CBI         2.2590    2.7070    5.4430 ca        1 7TP     -0.156300
     15 CAV         0.8980    2.5950    5.7300 ca        1 7TP     -0.066000
     16 CBH        -0.0440    3.4850    5.2010 ca        1 7TP     -0.184500
     17 CBL        -1.4480    3.3570    5.5000 cc        1 7TP      0.358200
     18 OBC        -1.8330    2.2950    6.3250 os        1 7TP     -0.354800
     19 CAR        -2.5650    4.0970    5.1280 cd        1 7TP     -0.283300
     20 CAL        -3.7040    3.4740    5.7470 cd        1 7TP     -0.161300
     21 CBF        -3.2280    2.3870    6.4630 cc        1 7TP      0.129200
     22 CAG        -3.8550    1.3690    7.2930 c         1 7TP      0.495400
     23 OAC        -5.0710    1.3330    7.4940 o         1 7TP     -0.519100
     24 CAO         0.4050    4.5160    4.3650 ca        1 7TP     -0.068000
     25 CAS         1.7520    4.6490    4.0740 ca        1 7TP     -0.202000
     26 CBM         2.7200    3.7470    4.5910 ca        1 7TP      0.203600
     27 NBO         4.0750    3.8620    4.2300 nh        1 7TP     -0.664000
     28 CAY         4.4070    4.8250    3.1950 c3        1 7TP      0.288100
     29 CBK         5.7550    4.6560    2.5900 cc        1 7TP     -0.244900
     30 CAT         6.1810    3.6890    1.6540 cd        1 7TP      0.321200
     31 NBA         7.4970    3.9300    1.2770 nd        1 7TP     -0.665000
     32 CAU         7.8820    5.0290    1.9630 cc        1 7TP      0.399400
     33 NBQ         6.8540    5.5100    2.7860 na        1 7TP     -0.203900
     34 CAB         6.8960    6.6710    3.6100 c3        1 7TP      0.021600
     35 CAZ         5.0580    3.6300    5.2620 c3        1 7TP      0.193800
     36 CBN         5.4490    2.1310    5.4520 c3        1 7TP      0.235500
     37 CAW         6.2530    2.0900    6.7690 c3        1 7TP     -0.039100
     38 CBE         6.7980    0.7640    7.1560 ca        1 7TP     -0.135300
     39 CAJ         6.5930    0.2910    8.4610 ca        1 7TP     -0.078500
     40 CAH         7.1470   -0.9110    8.8840 ca        1 7TP     -0.181500
     41 CBD         7.9230   -1.6570    7.9820 ca        1 7TP      0.126100
     42 OAF         8.4560   -2.8340    8.4560 oh        1 7TP     -0.500100
     43 CAI         8.1340   -1.2030    6.6730 ca        1 7TP     -0.181500
     44 CAK         7.5700    0.0040    6.2700 ca        1 7TP     -0.078500
     45 H1         -0.3480    1.5470    0.0360 h1        1 7TP      0.050033
     46 H2          0.0180    1.1910   -1.7330 h1        1 7TP      0.050033
     47 H3         -0.0410   -0.1810   -0.5070 h1        1 7TP      0.050033
     48 H4          4.1240    1.3150   -0.0990 ha        1 7TP      0.151500
     49 H5          5.2970    0.7990    2.0540 ha        1 7TP      0.155000
     50 H6          0.3480    0.1790    1.7320 ha        1 7TP      0.151500
     51 H7          1.5330   -0.3140    3.8530 ha        1 7TP      0.155000
     52 H8          2.5280    0.7770    6.3690 h1        1 7TP      0.068200
     53 H9          3.4730    2.1440    7.1090 h1        1 7TP      0.068200
     54 H10         0.5470    1.7830    6.3900 ha        1 7TP      0.150000
     55 H11        -2.5870    4.9790    4.4950 ha        1 7TP      0.165000
     56 H12        -4.7400    3.7970    5.6650 ha        1 7TP      0.175000
     57 H13        -3.1560    0.6230    7.7320 h4        1 7TP      0.020200
     58 H16        -0.3170    5.2320    3.9420 ha        1 7TP      0.137000
     59 H17         2.0510    5.4910    3.4300 ha        1 7TP      0.136000
     60 H18         3.6630    4.6850    2.3530 h1        1 7TP      0.052200
     61 H19         4.3000    5.8810    3.5890 h1        1 7TP      0.052200
     62 H20         5.6050    2.8570    1.2470 h4        1 7TP      0.048100
     63 H21         8.8660    5.5070    1.9080 h5        1 7TP      0.064100
     64 H22         6.6090    6.4070    4.6640 h1        1 7TP      0.055033
     65 H23         7.9350    7.0970    3.6070 h1        1 7TP      0.055033
     66 H24         6.1810    7.4480    3.2260 h1        1 7TP      0.055033
     67 H25         6.0070    4.1820    5.0170 h1        1 7TP      0.049200
     68 H26         4.6770    4.0240    6.2500 h1        1 7TP      0.049200
     69 H27         6.1430    1.8300    4.6080 h1        1 7TP      0.080700
     70 H28         7.1150    2.8020    6.6420 hc        1 7TP      0.048200
     71 H29         5.6130    2.4870    7.6030 hc        1 7TP      0.048200
     72 H30         5.9830    0.8770    9.1650 ha        1 7TP      0.140000
     73 H31         6.9870   -1.2860    9.9040 ha        1 7TP      0.143500
     74 H32         8.9010   -3.2760    7.7180 ho        1 7TP      0.420000
     75 H33         8.7260   -1.8000    5.9650 ha        1 7TP      0.143500
     76 H34         7.7100    0.3410    5.2290 ha        1 7TP      0.140000
@<TRIPOS>BOND
     1    1    2 1   
     2    1   45 1   
     3    1   46 1   
     4    1   47 1   
     5    2    3 1   
     6    3    4 ar  
     7    3    6 ar  
     8    4    5 ar  
     9    4   48 1   
    10    5    8 ar  
    11    5   49 1   
    12    6    7 ar  
    13    6   50 1   
    14    7    8 ar  
    15    7   51 1   
    16    8    9 1   
    17    9   10 2   
    18    9   11 2   
    19    9   12 1   
    20   12   13 1   
    21   12   36 1   
    22   13   14 1   
    23   13   52 1   
    24   13   53 1   
    25   14   15 ar  
    26   14   26 ar  
    27   15   16 ar  
    28   15   54 1   
    29   16   17 1   
    30   16   24 ar  
    31   17   18 1   
    32   17   19 2   
    33   18   21 1   
    34   19   20 1   
    35   19   55 1   
    36   20   21 2   
    37   20   56 1   
    38   21   22 1   
    39   22   23 2   
    40   22   57 1   
    41   24   25 ar  
    42   24   58 1   
    43   25   26 ar  
    44   25   59 1   
    45   26   27 1   
    46   27   28 1   
    47   27   35 1   
    48   28   29 1   
    49   28   60 1   
    50   28   61 1   
    51   29   30 2   
    52   29   33 1   
    53   30   31 1   
    54   30   62 1   
    55   31   32 2   
    56   32   33 1   
    57   32   63 1   
    58   33   34 1   
    59   34   64 1   
    60   34   65 1   
    61   34   66 1   
    62   35   36 1   
    63   35   67 1   
    64   35   68 1   
    65   36   37 1   
    66   36   69 1   
    67   37   38 1   
    68   37   70 1   
    69   37   71 1   
    70   38   39 ar  
    71   38   44 ar  
    72   39   40 ar  
    73   39   72 1   
    74   40   41 ar  
    75   40   73 1   
    76   41   42 1   
    77   41   43 ar  
    78   42   74 1   
    79   43   44 ar  
    80   43   75 1   
    81   44   76 1   
@<TRIPOS>SUBSTRUCTURE
     1 7TP         1 TEMP              0 ****  ****    0 ROOT
