@<TRIPOS>MOLECULE
7TP
   76    81     1     0     0
SMALL
bcc


@<TRIPOS>ATOM
      1 CAA        -0.6570    0.2910    0.0910 c3        1 7TP      0.109700
      2 OBB         0.6840    0.7700    0.0290 os        1 7TP     -0.321900
      3 CBG         1.4730    0.5320    1.1300 ca        1 7TP      0.190100
      4 CAN         2.7980    1.0020    1.0260 ca        1 7TP     -0.212000
      5 CAQ         3.6640    0.8120    2.0910 ca        1 7TP      0.024500
      6 CAM         1.0390   -0.1270    2.2900 ca        1 7TP     -0.212000
      7 CAP         1.9330   -0.3000    3.3400 ca        1 7TP      0.024500
      8 CBJ         3.2500    0.1670    3.2670 ca        1 7TP     -0.419500
      9 SBR         4.3390   -0.1110    4.5180 sy        1 7TP      1.513200
     10 OAD         3.8260   -1.1730    5.2970 o         1 7TP     -0.651300
     11 OAE         5.6210   -0.2860    3.9520 o         1 7TP     -0.651300
     12 NBP         4.3150    1.2660    5.4130 n3        1 7TP     -0.786500
     13 CAX         3.1180    1.7250    6.0570 c3        1 7TP      0.278100
     14 CBI         2.3080    2.7750    5.3390 ca        1 7TP     -0.157300
     15 CAV         0.9260    2.6950    5.5110 ca        1 7TP     -0.062000
     16 CBH         0.0510    3.6030    4.9030 ca        1 7TP     -0.188500
     17 CBL        -1.3750    3.5070    5.0870 cc        1 7TP      0.362200
     18 OBC        -1.8480    2.4750    5.9030 os        1 7TP     -0.356800
     19 CAR        -2.4420    4.2560    4.6020 cd        1 7TP     -0.286300
     20 CAL        -3.6410    3.6700    5.1380 cd        1 7TP     -0.159300
     21 CBF        -3.2490    2.5950    5.9200 cc        1 7TP      0.126200
     22 CAG        -3.9630    1.6130    6.7210 c         1 7TP      0.495400
     23 OAC        -5.1920    1.5970    6.8130 o         1 7TP     -0.520100
     24 CAO         0.5890    4.6150    4.0980 ca        1 7TP     -0.064000
     25 CAS         1.9590    4.7230    3.9250 ca        1 7TP     -0.204000
     26 CBM         2.8610    3.8150    4.5400 ca        1 7TP      0.211600
     27 NBO         4.2430    3.9250    4.3300 nh        1 7TP     -0.675000
     28 CAY         4.7020    4.8650    3.3250 c3        1 7TP      0.295100
     29 CBK         6.1390    4.7310    2.9660 cc        1 7TP     -0.250900
     30 CAT         6.8420    3.6080    2.4780 cd        1 7TP      0.323200
     31 NBA         8.1640    3.9460    2.2110 nd        1 7TP     -0.662000
     32 CAU         8.2820    5.2540    2.5260 cc        1 7TP      0.397400
     33 NBQ         7.0740    5.7820    3.0020 na        1 7TP     -0.202900
     34 CAB         6.8300    7.1290    3.3910 c3        1 7TP      0.021600
     35 CAZ         5.1220    3.6270    5.4340 c3        1 7TP      0.198800
     36 CBN         5.4740    2.1140    5.5650 c3        1 7TP      0.226500
     37 CAW         6.2030    1.9650    6.9190 c3        1 7TP     -0.042100
     38 CBE         6.9450    0.6860    7.0560 ca        1 7TP     -0.135300
     39 CAJ         6.5090   -0.2950    7.9520 ca        1 7TP     -0.079000
     40 CAH         7.2260   -1.4780    8.1140 ca        1 7TP     -0.179000
     41 CBD         8.3960   -1.6780    7.3690 ca        1 7TP      0.129100
     42 OAF         9.1640   -2.8140    7.4830 oh        1 7TP     -0.498100
     43 CAI         8.8480   -0.7020    6.4640 ca        1 7TP     -0.179000
     44 CAK         8.1170    0.4700    6.3170 ca        1 7TP     -0.079000
     45 H1         -0.6720   -0.8190    0.2070 h1        1 7TP      0.050700
     46 H2         -1.2100    0.7830    0.9270 h1        1 7TP      0.050700
     47 H3         -1.0840    0.5930   -0.8990 h1        1 7TP      0.050700
     48 H4          3.1240    1.5040    0.1030 ha        1 7TP      0.150500
     49 H5          4.7100    1.1600    2.0090 ha        1 7TP      0.152000
     50 H6          0.0120   -0.5060    2.3760 ha        1 7TP      0.150500
     51 H7          1.6030   -0.8340    4.2510 ha        1 7TP      0.152000
     52 H8          2.4590    0.8190    6.2290 h1        1 7TP      0.059700
     53 H9          3.3780    2.1390    7.0780 h1        1 7TP      0.059700
     54 H10         0.5030    1.8920    6.1390 ha        1 7TP      0.147000
     55 H11        -2.3930    5.1210    3.9460 ha        1 7TP      0.165000
     56 H12        -4.6600    4.0090    4.9610 ha        1 7TP      0.175000
     57 H13        -3.3170    0.8740    7.2460 h4        1 7TP      0.019200
     58 H16        -0.0810    5.3360    3.6030 ha        1 7TP      0.137000
     59 H17         2.3300    5.5460    3.2940 ha        1 7TP      0.135000
     60 H18         4.1030    4.6720    2.3840 h1        1 7TP      0.049200
     61 H19         4.4900    5.9270    3.6590 h1        1 7TP      0.049200
     62 H20         6.4670    2.5960    2.3190 h4        1 7TP      0.052100
     63 H21         9.1920    5.8560    2.4350 h5        1 7TP      0.063100
     64 H22         7.7880    7.7120    3.3470 h1        1 7TP      0.055367
     65 H23         6.0800    7.6060    2.7040 h1        1 7TP      0.055367
     66 H24         6.4290    7.1620    4.4410 h1        1 7TP      0.055367
     67 H25         4.6540    3.9690    6.4030 h1        1 7TP      0.053700
     68 H26         6.0950    4.1800    5.3060 h1        1 7TP      0.053700
     69 H27         6.2080    1.8460    4.7420 h1        1 7TP      0.091700
     70 H28         6.9350    2.8150    6.9990 hc        1 7TP      0.050200
     71 H29         5.4680    2.0770    7.7600 hc        1 7TP      0.050200
     72 H30         5.5880   -0.1390    8.5330 ha        1 7TP      0.135000
     73 H31         6.8720   -2.2500    8.8120 ha        1 7TP      0.143000
     74 H32         8.7010   -3.4280    8.0710 ho        1 7TP      0.418000
     75 H33         9.7620   -0.8830    5.8810 ha        1 7TP      0.143000
     76 H34         8.4580    1.2340    5.6000 ha        1 7TP      0.135000
@<TRIPOS>BOND
     1    1    2 1   
     2    1   45 1   
     3    1   46 1   
     4    1   47 1   
     5    2    3 1   
     6    3    4 ar  
     7    3    6 ar  
     8    4    5 ar  
     9    4   48 1   
    10    5    8 ar  
    11    5   49 1   
    12    6    7 ar  
    13    6   50 1   
    14    7    8 ar  
    15    7   51 1   
    16    8    9 1   
    17    9   10 2   
    18    9   11 2   
    19    9   12 1   
    20   12   13 1   
    21   12   36 1   
    22   13   14 1   
    23   13   52 1   
    24   13   53 1   
    25   14   15 ar  
    26   14   26 ar  
    27   15   16 ar  
    28   15   54 1   
    29   16   17 1   
    30   16   24 ar  
    31   17   18 1   
    32   17   19 2   
    33   18   21 1   
    34   19   20 1   
    35   19   55 1   
    36   20   21 2   
    37   20   56 1   
    38   21   22 1   
    39   22   23 2   
    40   22   57 1   
    41   24   25 ar  
    42   24   58 1   
    43   25   26 ar  
    44   25   59 1   
    45   26   27 1   
    46   27   28 1   
    47   27   35 1   
    48   28   29 1   
    49   28   60 1   
    50   28   61 1   
    51   29   30 2   
    52   29   33 1   
    53   30   31 1   
    54   30   62 1   
    55   31   32 2   
    56   32   33 1   
    57   32   63 1   
    58   33   34 1   
    59   34   64 1   
    60   34   65 1   
    61   34   66 1   
    62   35   36 1   
    63   35   67 1   
    64   35   68 1   
    65   36   37 1   
    66   36   69 1   
    67   37   38 1   
    68   37   70 1   
    69   37   71 1   
    70   38   39 ar  
    71   38   44 ar  
    72   39   40 ar  
    73   39   72 1   
    74   40   41 ar  
    75   40   73 1   
    76   41   42 1   
    77   41   43 ar  
    78   42   74 1   
    79   43   44 ar  
    80   43   75 1   
    81   44   76 1   
@<TRIPOS>SUBSTRUCTURE
     1 7TP         1 TEMP              0 ****  ****    0 ROOT
