@<TRIPOS>MOLECULE
7TP
   76    67     1     0     0
SMALL
bcc


@<TRIPOS>ATOM
      1 CAA        -5.2530   -5.6530    1.3620 c3        1 7TP     -0.089000
      2 OBB        -4.5730   -4.7610    2.2480 os        1 7TP     -0.203000
      3 CBG        -3.4620   -4.1260    1.6690 c2        1 7TP      0.158000
      4 CAN        -3.6160   -2.8970    1.0280 c2        1 7TP     -0.235000
      5 CAQ        -2.5160   -2.2590    0.4800 c1        1 7TP      0.032000
      6 CAM        -2.1990   -4.7160    1.7580 c1        1 7TP     -0.194000
      7 CAP        -1.0810   -4.0730    1.2040 c1        1 7TP      0.013000
      8 CBJ        -1.2280   -2.8610    0.5710 c1        1 7TP     -0.890000
      9 SBR         0.1220   -2.2020   -0.3610 s4        1 7TP      2.078800
     10 OAD         1.2080   -3.2240   -0.5300 o         1 7TP     -0.552400
     11 OAE        -0.2560   -1.9610   -1.7410 o         1 7TP     -0.552400
     12 NBP         0.6950   -0.8250    0.3540 n2        1 7TP     -0.822000
     13 CAX        -0.0800    0.0230    1.2280 c3        1 7TP      0.044000
     14 CBI        -0.5460    1.3270    0.4670 c1        1 7TP     -0.172000
     15 CAV        -1.8940    1.7190    0.7600 c1        1 7TP     -0.054000
     16 CBH        -2.7630    2.1090   -0.2860 c1        1 7TP     -0.095000
     17 CBL        -4.1960    2.3840    0.0060 c1        1 7TP     -0.048000
     18 OBC        -5.1130    1.4730    0.4900 os        1 7TP     -0.070000
     19 CAR        -4.8290    3.6010   -0.1190 c1        1 7TP     -0.167000
     20 CAL        -6.1240    3.4490    0.2830 c1        1 7TP     -0.167000
     21 CBF        -6.3050    2.1260    0.6620 c1        1 7TP     -0.048000
     22 CAG        -7.6780    1.4630    1.0830 c1        1 7TP      0.259000
     23 OAC        -7.7400    0.2520    1.2870 o         1 7TP     -0.292000
     24 CAO        -2.2980    2.1130   -1.6310 c2        1 7TP     -0.060000
     25 CAS        -0.9660    1.7260   -1.9220 c1        1 7TP     -0.185000
     26 CBM        -0.0870    1.3300   -0.8550 c1        1 7TP      0.160000
     27 NBO         1.3030    1.7390   -0.9160 n3        1 7TP     -0.298000
     28 CAY         1.3910    3.2210   -0.9130 c3        1 7TP      0.069000
     29 CBK         2.4890    3.6830   -1.9600 c2        1 7TP     -0.172000
     30 CAT         2.7910    3.0460   -3.1580 c1        1 7TP     -0.131000
     31 NBA         3.7010    3.7910   -3.8070 n2        1 7TP     -0.138000
     32 CAU         3.9790    4.8880   -3.0360 c1        1 7TP     -0.096000
     33 NBQ         3.2200    4.8080   -1.8930 n2        1 7TP     -0.163000
     34 CAB         3.2480    5.7360   -0.7870 c2        1 7TP     -0.074000
     35 CAZ         2.0490    1.2150    0.2080 c3        1 7TP     -0.016000
     36 CBN         2.0340   -0.3280    0.2100 c3        1 7TP      0.009000
     37 CAW         2.8860   -0.8420    1.3680 c3        1 7TP     -0.141000
     38 CBE         3.9790   -1.7750    0.8250 c2        1 7TP     -0.117000
     39 CAJ         3.8680   -3.1570    1.0020 c2        1 7TP     -0.082000
     40 CAH         4.8240   -4.0120    0.4480 c1        1 7TP     -0.209000
     41 CBD         5.8760   -3.4960   -0.2720 c1        1 7TP      0.078000
     42 OAF         6.7290   -4.3270   -0.9030 oh        1 7TP     -0.253000
     43 CAI         5.9910   -2.1050   -0.4520 c1        1 7TP     -0.160000
     44 CAK         5.0410   -1.2530    0.0990 c1        1 7TP     -0.101000
     45 H1         -6.1150   -5.9190    1.7610 h1        1 7TP      0.099333
     46 H2         -4.6690   -6.4980    1.2040 h1        1 7TP      0.099333
     47 H3         -5.4190   -5.1890    0.4820 h1        1 7TP      0.099333
     48 H4         -4.5160   -2.4790    0.9660 ha        1 7TP      0.156000
     49 H5         -2.6280   -1.3660    0.0160 ha        1 7TP      0.163000
     50 H6         -2.0890   -5.6060    2.2230 ha        1 7TP      0.158000
     51 H7         -0.1800   -4.4940    1.2680 ha        1 7TP      0.156000
     52 H8         -0.8710   -0.4650    1.5140 h1        1 7TP      0.096000
     53 H9          0.4870    0.2910    2.0010 h1        1 7TP      0.096000
     54 H10        -2.1890    1.7790    1.6810 ha        1 7TP      0.148000
     55 H11        -4.4210    4.4290   -0.4380 DU        1 7TP      0.185750
     56 H12        -6.8160    4.1620    0.3000 DU        1 7TP      0.185750
     57 H13        -8.4360    2.0130    1.2560 ha        1 7TP      0.105000
     58 H16        -2.9380    2.3980   -2.3990 ha        1 7TP      0.135000
     59 H17        -0.6360    1.7280   -2.8740 ha        1 7TP      0.136000
     60 H18         0.5440    3.5930   -1.1550 h1        1 7TP      0.089000
     61 H19         1.6410    3.5330   -0.0160 h1        1 7TP      0.089000
     62 H20         2.4100    2.2070   -3.4710 DU        1 7TP      0.185750
     63 H21         4.6290    5.6270   -3.2680 DU        1 7TP      0.185750
     64 H22         3.9670    5.5230   -0.2160 ha        1 7TP      0.090000
     65 H23         3.3600    6.6320   -1.1190 ha        1 7TP      0.090000
     66 H24         2.4020    5.6740   -0.2870 ha        1 7TP      0.090000
     67 H25         1.6360    1.5550    1.0640 h1        1 7TP      0.101500
     68 H26         2.9750    1.5270    0.1510 h1        1 7TP      0.101500
     69 H27         2.4340   -0.6710   -0.6800 h1        1 7TP      0.105000
     70 H28         3.3040   -0.0770    1.8300 hc        1 7TP      0.106000
     71 H29         2.3160   -1.3410    2.0030 hc        1 7TP      0.106000
     72 H30         3.1550   -3.5080    1.4880 ha        1 7TP      0.154000
     73 H31         4.7430   -5.0130    0.5780 ha        1 7TP      0.138000
     74 H32         7.4130   -4.4710   -0.4010 ho        1 7TP      0.219000
     75 H33         6.7620   -1.7290   -0.9800 ha        1 7TP      0.150000
     76 H34         5.1270   -0.2150   -0.0360 ha        1 7TP      0.131000
@<TRIPOS>BOND
     1    1    2 1   
     2    1   45 1   
     3    1   46 1   
     4    1   47 1   
     5    2    3 1   
     6    3    4 1   
     7    3    6 1   
     8    4    5 1   
     9    4   48 1   
    10    5   49 1   
    11    6   50 1   
    12    7    8 1   
    13    7   51 1   
    14    8    9 1   
    15    9   10 1   
    16    9   11 1   
    17   12   13 1   
    18   12   36 1   
    19   13   14 1   
    20   13   52 1   
    21   13   53 1   
    22   14   26 1   
    23   15   16 1   
    24   15   54 1   
    25   16   24 1   
    26   17   18 1   
    27   17   19 1   
    28   18   21 1   
    29   19   20 1   
    30   20   21 1   
    31   22   23 1   
    32   22   57 1   
    33   24   25 1   
    34   24   58 1   
    35   25   59 1   
    36   26   27 1   
    37   27   28 1   
    38   27   35 1   
    39   28   29 1   
    40   28   60 1   
    41   28   61 1   
    42   29   30 1   
    43   29   33 1   
    44   30   31 1   
    45   31   32 1   
    46   32   33 1   
    47   34   64 1   
    48   34   65 1   
    49   34   66 1   
    50   35   36 1   
    51   35   67 1   
    52   35   68 1   
    53   36   37 1   
    54   36   69 1   
    55   37   38 1   
    56   37   70 1   
    57   37   71 1   
    58   38   39 1   
    59   38   44 1   
    60   39   40 1   
    61   39   72 1   
    62   40   73 1   
    63   41   42 1   
    64   41   43 1   
    65   42   74 1   
    66   43   75 1   
    67   44   76 1   
@<TRIPOS>SUBSTRUCTURE
     1 7TP         1 TEMP              0 ****  ****    0 ROOT
