@<TRIPOS>MOLECULE
7TP
   76    81     1     0     0
SMALL
bcc


@<TRIPOS>ATOM
      1 CAA         3.7920    0.0430    4.9400 c3        1 7TP      0.109700
      2 OBB         2.5380    0.6820    4.7130 os        1 7TP     -0.321900
      3 CBG         1.7000    0.0840    3.8030 ca        1 7TP      0.190100
      4 CAN         0.4620    0.7330    3.6190 ca        1 7TP     -0.212000
      5 CAQ        -0.4450    0.2050    2.7140 ca        1 7TP      0.024500
      6 CAM         2.0050   -1.0850    3.0900 ca        1 7TP     -0.212000
      7 CAP         1.0740   -1.5880    2.1900 ca        1 7TP      0.024500
      8 CBJ        -0.1580   -0.9560    1.9790 ca        1 7TP     -0.419500
      9 SBR        -1.3030   -1.6160    0.9390 sy        1 7TP      1.513200
     10 OAD        -0.9700   -2.9760    0.7510 o         1 7TP     -0.651300
     11 OAE        -2.5840   -1.3290    1.4600 o         1 7TP     -0.651300
     12 NBP        -1.0930   -0.8160   -0.4800 n3        1 7TP     -0.786500
     13 CAX         0.1440   -0.8740   -1.2040 c3        1 7TP      0.278100
     14 CBI         1.1160    0.2620   -1.0000 ca        1 7TP     -0.157300
     15 CAV         2.4670   -0.0830   -1.0500 ca        1 7TP     -0.062000
     16 CBH         3.4800    0.8670   -0.8770 ca        1 7TP     -0.188500
     17 CBL         4.8710    0.4980   -0.9270 cc        1 7TP      0.362200
     18 OBC         5.1690   -0.8480   -1.1630 os        1 7TP     -0.356800
     19 CAR         6.0480    1.2260   -0.7830 cd        1 7TP     -0.286300
     20 CAL         7.1350    0.2970   -0.9350 cd        1 7TP     -0.159300
     21 CBF         6.5720   -0.9480   -1.1640 cc        1 7TP      0.126200
     22 CAG         7.1140   -2.2780   -1.3970 c         1 7TP      0.495400
     23 OAC         8.3250   -2.5070   -1.4120 o         1 7TP     -0.520100
     24 CAO         3.1150    2.2000   -0.6440 ca        1 7TP     -0.064000
     25 CAS         1.7800    2.5680   -0.6060 ca        1 7TP     -0.204000
     26 CBM         0.7400    1.6170   -0.7860 ca        1 7TP      0.211600
     27 NBO        -0.6060    2.0060   -0.7170 nh        1 7TP     -0.675000
     28 CAY        -0.8980    3.3530   -0.2710 c3        1 7TP      0.295100
     29 CBK        -2.3320    3.6020    0.0400 cc        1 7TP     -0.250900
     30 CAT        -3.1830    2.9370    0.9490 cd        1 7TP      0.323200
     31 NBA        -4.4340    3.5430    0.9690 nd        1 7TP     -0.662000
     32 CAU        -4.3640    4.5660    0.0900 cc        1 7TP      0.397400
     33 NBQ        -3.1010    4.6420   -0.5140 na        1 7TP     -0.202900
     34 CAB        -2.6690    5.6150   -1.4600 c3        1 7TP      0.021600
     35 CAZ        -1.5420    1.3650   -1.6080 c3        1 7TP      0.199800
     36 CBN        -2.1170    0.0250   -1.0560 c3        1 7TP      0.225500
     37 CAW        -2.8890   -0.6180   -2.2300 c3        1 7TP     -0.042100
     38 CBE        -3.8160   -1.6990   -1.8080 ca        1 7TP     -0.135300
     39 CAJ        -3.5500   -3.0320   -2.1390 ca        1 7TP     -0.079000
     40 CAH        -4.4380   -4.0430   -1.7830 ca        1 7TP     -0.179000
     41 CBD        -5.6080   -3.7130   -1.0860 ca        1 7TP      0.129100
     42 OAF        -6.5390   -4.6550   -0.7110 oh        1 7TP     -0.498100
     43 CAI        -5.8910   -2.3800   -0.7450 ca        1 7TP     -0.179000
     44 CAK        -4.9910   -1.3860   -1.1100 ca        1 7TP     -0.079000
     45 H1          4.2800    0.6980    5.7050 h1        1 7TP      0.050700
     46 H2          3.6400   -0.9890    5.3410 h1        1 7TP      0.050700
     47 H3          4.3940    0.0160    3.9990 h1        1 7TP      0.050700
     48 H4          0.2340    1.6400    4.1970 ha        1 7TP      0.150500
     49 H5         -1.4260    0.6960    2.5780 ha        1 7TP      0.152000
     50 H6          2.9630   -1.6030    3.2340 ha        1 7TP      0.150500
     51 H7          1.3010   -2.5180    1.6370 ha        1 7TP      0.152000
     52 H8          0.6580   -1.8420   -0.9140 h1        1 7TP      0.059700
     53 H9         -0.0730   -0.9380   -2.3120 h1        1 7TP      0.059700
     54 H10         2.7520   -1.1350   -1.2240 ha        1 7TP      0.147000
     55 H11         6.1410    2.2910   -0.5930 ha        1 7TP      0.165000
     56 H12         8.1970    0.5310   -0.8820 ha        1 7TP      0.175000
     57 H13         6.3550   -3.0750   -1.5610 h4        1 7TP      0.019200
     58 H16         3.8940    2.9640   -0.4980 ha        1 7TP      0.137000
     59 H17         1.5480    3.6300   -0.4350 ha        1 7TP      0.135000
     60 H18        -0.3150    3.5280    0.6840 h1        1 7TP      0.049200
     61 H19        -0.5390    4.1060   -1.0380 h1        1 7TP      0.049200
     62 H20        -2.9580    2.0670    1.5670 h4        1 7TP      0.052100
     63 H21        -5.1730    5.2650   -0.1460 h5        1 7TP      0.063100
     64 H22        -1.8420    6.2410   -1.0260 h1        1 7TP      0.055367
     65 H23        -2.2890    5.1090   -2.3890 h1        1 7TP      0.055367
     66 H24        -3.5290    6.2830   -1.7310 h1        1 7TP      0.055367
     67 H25        -2.4190    2.0480   -1.7920 h1        1 7TP      0.053700
     68 H26        -1.0490    1.1590   -2.6020 h1        1 7TP      0.053700
     69 H27        -2.8650    0.2680   -0.2380 h1        1 7TP      0.091700
     70 H28        -3.4880    0.1960   -2.7220 hc        1 7TP      0.050200
     71 H29        -2.1640   -1.0070   -2.9930 hc        1 7TP      0.050200
     72 H30        -2.6280   -3.2900   -2.6830 ha        1 7TP      0.135000
     73 H31        -4.2190   -5.0900   -2.0370 ha        1 7TP      0.143000
     74 H32        -6.1850   -5.5280   -0.9330 ho        1 7TP      0.418000
     75 H33        -6.8090   -2.1430   -0.1890 ha        1 7TP      0.143000
     76 H34        -5.1990   -0.3400   -0.8350 ha        1 7TP      0.135000
@<TRIPOS>BOND
     1    1    2 1   
     2    1   45 1   
     3    1   46 1   
     4    1   47 1   
     5    2    3 1   
     6    3    4 ar  
     7    3    6 ar  
     8    4    5 ar  
     9    4   48 1   
    10    5    8 ar  
    11    5   49 1   
    12    6    7 ar  
    13    6   50 1   
    14    7    8 ar  
    15    7   51 1   
    16    8    9 1   
    17    9   10 2   
    18    9   11 2   
    19    9   12 1   
    20   12   13 1   
    21   12   36 1   
    22   13   14 1   
    23   13   52 1   
    24   13   53 1   
    25   14   15 ar  
    26   14   26 ar  
    27   15   16 ar  
    28   15   54 1   
    29   16   17 1   
    30   16   24 ar  
    31   17   18 1   
    32   17   19 2   
    33   18   21 1   
    34   19   20 1   
    35   19   55 1   
    36   20   21 2   
    37   20   56 1   
    38   21   22 1   
    39   22   23 2   
    40   22   57 1   
    41   24   25 ar  
    42   24   58 1   
    43   25   26 ar  
    44   25   59 1   
    45   26   27 1   
    46   27   28 1   
    47   27   35 1   
    48   28   29 1   
    49   28   60 1   
    50   28   61 1   
    51   29   30 2   
    52   29   33 1   
    53   30   31 1   
    54   30   62 1   
    55   31   32 2   
    56   32   33 1   
    57   32   63 1   
    58   33   34 1   
    59   34   64 1   
    60   34   65 1   
    61   34   66 1   
    62   35   36 1   
    63   35   67 1   
    64   35   68 1   
    65   36   37 1   
    66   36   69 1   
    67   37   38 1   
    68   37   70 1   
    69   37   71 1   
    70   38   39 ar  
    71   38   44 ar  
    72   39   40 ar  
    73   39   72 1   
    74   40   41 ar  
    75   40   73 1   
    76   41   42 1   
    77   41   43 ar  
    78   42   74 1   
    79   43   44 ar  
    80   43   75 1   
    81   44   76 1   
@<TRIPOS>SUBSTRUCTURE
     1 7TP         1 TEMP              0 ****  ****    0 ROOT
