@<TRIPOS>MOLECULE
7TQ
   86    89     1     0     0
SMALL
bcc


@<TRIPOS>ATOM
      1 CAA         1.2720    0.6150   -1.0820 c3        1 7TQ     -0.082000
      2 OBG         2.6160    0.6380   -0.6040 os        1 7TQ     -0.198000
      3 CBM         2.7940    0.4870    0.7470 ca        1 7TQ      0.154000
      4 CAS         4.1410    0.4620    1.1720 ca        1 7TQ     -0.211500
      5 CAU         4.4170    0.3140    2.5190 ca        1 7TQ      0.018000
      6 CAR         1.7520    0.3650    1.6790 ca        1 7TQ     -0.211500
      7 CAT         2.0640    0.2240    3.0260 ca        1 7TQ      0.018000
      8 CBP         3.3920    0.1990    3.4730 ca        1 7TQ     -0.883000
      9 SBW         3.7460   -0.0420    5.0890 s6        1 7TQ      2.849000
     10 OAE         2.6080   -0.5600    5.7540 o         1 7TQ     -0.940000
     11 OAF         4.9210   -0.8250    5.1760 o         1 7TQ     -0.940000
     12 NBU         4.0560    1.4650    5.6680 n3        1 7TQ     -0.824000
     13 CBB         3.0800    2.1820    6.4490 c3        1 7TQ      0.003000
     14 CBO         1.8620    2.6730    5.7050 ca        1 7TQ     -0.087000
     15 CAY         0.6950    1.9050    5.8110 ca        1 7TQ     -0.082000
     16 CBJ        -0.5100    2.3470    5.2550 ca        1 7TQ     -0.005000
     17 CAG        -1.6860    1.5590    5.3800 c1        1 7TQ     -0.109000
     18 NAC        -2.6490    0.9140    5.4810 n1        1 7TQ     -0.007000
     19 CAM        -0.5550    3.5720    4.5740 ca        1 7TQ     -0.075000
     20 CAV         0.6000    4.3290    4.4370 ca        1 7TQ     -0.148000
     21 CBR         1.8220    3.8850    4.9880 ca        1 7TQ      0.015000
     22 NBT         2.9990    4.6980    4.7690 nh        1 7TQ     -0.124000
     23 CBC         3.3340    5.1300    3.5400 c1        1 7TQ     -0.034500
     24 CBQ         6.5020    4.7350    2.8540 c2        1 7TQ     -0.154000
     25 CAW         6.7830    3.3550    2.8740 c2        1 7TQ     -0.214000
     26 NBE         8.1270    3.1420    3.1780 n2        1 7TQ     -0.164000
     27 CAX         8.6680    4.3700    3.3310 c2        1 7TQ     -0.107000
     28 NBV         7.7070    5.3770    3.1470 na        1 7TQ     -0.155000
     29 CAB         7.9320    6.7840    3.1740 c3        1 7TQ     -0.080000
     30 CBD         3.7500    5.0170    5.8590 c1        1 7TQ     -0.034500
     31 CBS         5.3470    2.0770    5.5190 c3        1 7TQ     -0.002000
     32 CBA         6.2100    2.1660    6.7880 c3        1 7TQ     -0.156000
     33 CBL         6.9370    0.9000    7.0730 ca        1 7TQ     -0.020000
     34 CAO         6.6200    0.1380    8.2050 ca        1 7TQ     -0.103500
     35 CAQ         7.2800   -1.0630    8.4610 ca        1 7TQ     -0.093000
     36 CAN         7.9500    0.4700    6.2010 ca        1 7TQ     -0.103500
     37 CAP         8.6210   -0.7270    6.4310 ca        1 7TQ     -0.093000
     38 CBN         8.2550   -1.4810    7.5510 ca        1 7TQ     -0.006000
     39 OBH         8.7700   -2.7900    7.6960 os        1 7TQ     -0.171000
     40 CBI         9.9830   -2.9180    8.2820 c2        1 7TQ      0.326000
     41 OAD        10.7230   -2.0460    8.7070 o         1 7TQ     -0.217000
     42 NBF        10.3580   -4.3670    8.3560 n4        1 7TQ     -0.081000
     43 CAZ        10.8700   -4.8640    7.0270 c3        1 7TQ     -0.060000
     44 CBK        11.2140   -6.3080    7.1090 ca        1 7TQ     -0.190000
     45 CAK        10.2490   -7.2740    6.7980 ca        1 7TQ     -0.096500
     46 CAI        10.5850   -8.6260    6.8350 ca        1 7TQ     -0.120000
     47 CAH        11.8800   -9.0160    7.1830 ca        1 7TQ     -0.075000
     48 CAJ        12.8430   -8.0530    7.4910 ca        1 7TQ     -0.120000
     49 CAL        12.5140   -6.7000    7.4550 ca        1 7TQ     -0.096500
     50 H1          0.7830   -0.3580   -0.8330 h1        1 7TQ      0.094667
     51 H2          0.6920    1.4700   -0.6570 h1        1 7TQ      0.094667
     52 H3          1.3930    0.7280   -2.1900 h1        1 7TQ      0.094667
     53 H4          4.9440    0.5520    0.4260 ha        1 7TQ      0.158500
     54 H5          5.4700    0.2620    2.8520 ha        1 7TQ      0.153500
     55 H6          0.7010    0.3710    1.3580 ha        1 7TQ      0.158500
     56 H7          1.2480    0.1190    3.7650 ha        1 7TQ      0.153500
     57 H8          2.7180    1.4920    7.2730 h1        1 7TQ      0.126000
     58 H9          3.5660    3.0720    6.9550 h1        1 7TQ      0.126000
     59 H10         0.7370    0.9310    6.3350 ha        1 7TQ      0.183000
     60 H11        -1.5050    3.9340    4.1490 ha        1 7TQ      0.158000
     61 H12         0.5480    5.2880    3.8950 ha        1 7TQ      0.149000
     62 H13         2.6630    4.8400    2.7040 ha        1 7TQ      0.061500
     63 H14         5.5650    5.2760    2.6910 h4        1 7TQ      0.207000
     64 H15         6.1050    2.5290    2.6660 h4        1 7TQ      0.169000
     65 H16         9.7140    4.5900    3.5650 h5        1 7TQ      0.199000
     66 H17         6.9830    7.3160    3.4520 h1        1 7TQ      0.098667
     67 H18         8.2680    7.1450    2.1630 h1        1 7TQ      0.098667
     68 H19         8.7280    7.0260    3.9280 h1        1 7TQ      0.098667
     69 H20         5.2230    3.1320    5.1320 h1        1 7TQ      0.097000
     70 H21         4.6180    5.6730    5.6150 ha        1 7TQ      0.061500
     71 H22         5.9250    1.5000    4.7360 h1        1 7TQ      0.097000
     72 H23         5.5820    2.4650    7.6680 hc        1 7TQ      0.110500
     73 H24         6.9630    2.9840    6.6200 hc        1 7TQ      0.110500
     74 H25         5.8350    0.4800    8.8990 ha        1 7TQ      0.163500
     75 H26         7.0230   -1.6740    9.3370 ha        1 7TQ      0.149000
     76 H27         8.2070    1.0780    5.3160 ha        1 7TQ      0.163500
     77 H28         9.4020   -1.0770    5.7420 ha        1 7TQ      0.149000
     78 H29         9.5340   -4.9190    8.6240 hn        1 7TQ      0.265000
     79 H30        10.0550   -4.6770    6.2680 hx        1 7TQ      0.155500
     80 H31        11.7740   -4.2420    6.7620 hx        1 7TQ      0.155500
     81 H32         9.2320   -6.9700    6.5050 ha        1 7TQ      0.142500
     82 H33         9.8280   -9.3870    6.5840 ha        1 7TQ      0.160500
     83 H34        12.1440  -10.0860    7.2080 ha        1 7TQ      0.161000
     84 H35        13.8670   -8.3620    7.7570 ha        1 7TQ      0.160500
     85 H36        13.2810   -5.9430    7.6820 ha        1 7TQ      0.142500
     86 HBF2       11.0870   -4.4830    9.0720 hn        1 7TQ      0.265000
@<TRIPOS>BOND
     1    1    2 1   
     2    1   50 1   
     3    1   51 1   
     4    1   52 1   
     5    2    3 1   
     6    3    4 1   
     7    3    6 1   
     8    4    5 1   
     9    4   53 1   
    10    5    8 1   
    11    5   54 1   
    12    6    7 1   
    13    6   55 1   
    14    7    8 1   
    15    7   56 1   
    16    8    9 1   
    17    9   10 1   
    18    9   11 1   
    19    9   12 1   
    20   12   13 1   
    21   12   31 1   
    22   13   14 1   
    23   13   57 1   
    24   13   58 1   
    25   14   15 1   
    26   14   21 1   
    27   15   16 1   
    28   15   59 1   
    29   16   17 1   
    30   16   19 1   
    31   17   18 1   
    32   19   20 1   
    33   19   60 1   
    34   20   21 1   
    35   20   61 1   
    36   21   22 1   
    37   22   23 1   
    38   22   30 1   
    39   23   62 1   
    40   24   25 1   
    41   24   28 1   
    42   24   63 1   
    43   25   26 1   
    44   25   64 1   
    45   26   27 1   
    46   27   28 1   
    47   27   65 1   
    48   28   29 1   
    49   29   66 1   
    50   29   67 1   
    51   29   68 1   
    52   30   70 1   
    53   31   32 1   
    54   31   69 1   
    55   31   71 1   
    56   32   33 1   
    57   32   72 1   
    58   32   73 1   
    59   33   34 1   
    60   33   36 1   
    61   34   35 1   
    62   34   74 1   
    63   35   38 1   
    64   35   75 1   
    65   36   37 1   
    66   36   76 1   
    67   37   38 1   
    68   37   77 1   
    69   38   39 1   
    70   39   40 1   
    71   40   41 1   
    72   40   42 1   
    73   42   43 1   
    74   42   78 1   
    75   42   86 1   
    76   43   44 1   
    77   43   79 1   
    78   43   80 1   
    79   44   45 1   
    80   44   49 1   
    81   45   46 1   
    82   45   81 1   
    83   46   47 1   
    84   46   82 1   
    85   47   48 1   
    86   47   83 1   
    87   48   49 1   
    88   48   84 1   
    89   49   85 1   
@<TRIPOS>SUBSTRUCTURE
     1 7TQ         1 TEMP              0 ****  ****    0 ROOT
