@<TRIPOS>MOLECULE
7TQ
   85    77     1     0     0
SMALL
bcc


@<TRIPOS>ATOM
      1 CAA         1.0590   -0.3650   -8.6110 c3        1 7TQ     -0.080000
      2 OBG         0.4390   -1.4440   -7.9380 os        1 7TQ     -0.203000
      3 CBM         0.1290   -1.1720   -6.5680 c2        1 7TQ      0.145000
      4 CAS         1.1300   -1.3020   -5.5880 c2        1 7TQ     -0.235000
      5 CAU         0.7940   -1.2260   -4.2260 c1        1 7TQ      0.021000
      6 CAR        -1.1960   -0.9680   -6.1860 c1        1 7TQ     -0.187000
      7 CAT        -1.5290   -0.8920   -4.8300 c1        1 7TQ      0.016000
      8 CBP        -0.5240   -1.0230   -3.8470 c1        1 7TQ     -0.872000
      9 SBW        -0.9300   -0.7530   -2.0910 s4        1 7TQ      2.068800
     10 OAE        -2.2970   -1.0020   -1.8380 o         1 7TQ     -0.543900
     11 OAF        -0.3000   -1.7540   -1.2450 o         1 7TQ     -0.543900
     12 NBU        -0.5000    0.7820   -1.6260 n2        1 7TQ     -0.825000
     13 CBB        -0.7560    1.9700   -2.4020 c3        1 7TQ      0.026000
     14 CBO        -1.6860    2.9280   -1.6330 c1        1 7TQ     -0.134000
     15 CAY        -2.9790    3.3770   -2.0170 c1        1 7TQ     -0.049000
     16 CBJ        -3.8220    3.9760   -1.0700 c1        1 7TQ     -0.053000
     17 CAG        -5.1850    4.5460   -1.5030 c1        1 7TQ     -0.090000
     18 NAC        -6.2090    4.9740   -1.8280 n1        1 7TQ     -0.043000
     19 CAM        -3.3900    4.1310    0.2510 c2        1 7TQ     -0.055000
     20 CAV        -2.1150    3.6880    0.6300 c1        1 7TQ     -0.205000
     21 CBR        -1.2610    3.0840   -0.3240 c1        1 7TQ      0.119000
     22 NBT         0.1440    3.5130   -0.2760 n3        1 7TQ     -0.278000
     23 CBC         0.3430    4.6630   -1.2000 c3        1 7TQ      0.042000
     24 CBQ         1.2010    5.7510   -0.4980 c2        1 7TQ     -0.163000
     25 CAW         2.0010    5.5570    0.6120 c1        1 7TQ     -0.170000
     26 NBE         2.7220    6.6740    0.8060 n2        1 7TQ     -0.137000
     27 CAX         2.3850    7.5710   -0.1700 c1        1 7TQ     -0.091000
     28 NBV         1.4440    6.9910   -0.9710 n2        1 7TQ     -0.155000
     29 CAB         0.7900    7.6160   -2.1210 c2        1 7TQ     -0.077000
     30 CBD         1.0210    2.4470   -0.6530 c3        1 7TQ     -0.027000
     31 CBS         0.3300    1.0800   -0.4880 c3        1 7TQ      0.047000
     32 CBA        -0.5150    1.0980    0.7560 c3        1 7TQ     -0.142000
     33 CBL        -0.0270   -0.0370    1.7420 c2        1 7TQ     -0.098000
     34 CAO         1.3370   -0.1870    2.0020 c2        1 7TQ     -0.113000
     35 CAQ         1.7600   -1.0200    3.0320 c1        1 7TQ     -0.136000
     36 CAN        -0.9520   -0.7170    2.5100 c1        1 7TQ     -0.120000
     37 CAP        -0.5240   -1.5500    3.5410 c1        1 7TQ     -0.139000
     38 CBN         0.8330   -1.6990    3.7990 c1        1 7TQ      0.073000
     39 OBH         1.2680   -2.5050    4.9030 os        1 7TQ     -0.234000
     40 CBI         1.5810   -3.8380    4.5500 c2        1 7TQ      0.381000
     41 OAD         1.7430   -4.1380    3.3680 o         1 7TQ     -0.380000
     42 NBF         1.6180   -4.8910    5.5930 n         1 7TQ     -0.314000
     43 CAZ         2.1060   -6.2290    5.2650 c3        1 7TQ      0.001000
     44 CBK         1.0060   -7.2560    5.5420 c2        1 7TQ     -0.131000
     45 CAK         0.0720   -7.5640    4.5540 c2        1 7TQ     -0.113000
     46 CAI        -0.9200   -8.5280    4.8020 c1        1 7TQ     -0.131000
     47 CAH        -0.9680   -9.1730    6.0330 c1        1 7TQ     -0.126500
     48 CAJ        -0.0280   -8.8620    7.0220 c1        1 7TQ     -0.126500
     49 CAL         0.9560   -7.9050    6.7760 c1        1 7TQ     -0.115000
     50 H1          0.4580    0.3950   -8.6250 h1        1 7TQ      0.091000
     51 H2          1.2640   -0.6230   -9.5030 h1        1 7TQ      0.091000
     52 H3          1.8890   -0.1180   -8.1410 h1        1 7TQ      0.091000
     53 H4          2.0630   -1.4440   -5.8560 ha        1 7TQ      0.148000
     54 H5          1.5050   -1.3190   -3.5320 ha        1 7TQ      0.157000
     55 H6         -1.9260   -0.8760   -6.9000 ha        1 7TQ      0.159000
     56 H7         -2.4750   -0.7460   -4.5580 ha        1 7TQ      0.155000
     57 H8         -1.1980    1.7080   -3.2470 h1        1 7TQ      0.105500
     58 H9          0.1150    2.4350   -2.5690 h1        1 7TQ      0.105500
     59 H10        -3.3120    3.1920   -2.9210 ha        1 7TQ      0.152000
     60 H11        -3.9790    4.5510    0.9130 ha        1 7TQ      0.146000
     61 H12        -1.8100    3.8000    1.5680 ha        1 7TQ      0.151000
     62 H13         0.8090    4.3530   -2.0190 h1        1 7TQ      0.103500
     63 H14        -0.5070    5.0320   -1.4380 h1        1 7TQ      0.103500
     64 H15         2.0360    4.7440    1.1640 DU        1 7TQ      0.193000
     65 H16         2.7590    8.4840   -0.2770 DU        1 7TQ      0.193000
     66 H17        -0.1530    7.2860   -2.1880 ha        1 7TQ      0.095000
     67 H18         1.2860    7.3790   -2.9550 ha        1 7TQ      0.095000
     68 H19         0.7880    8.6140   -2.0040 ha        1 7TQ      0.095000
     69 H20         1.8200    2.4750   -0.0910 h1        1 7TQ      0.092500
     70 H21         1.2780    2.5620   -1.5750 h1        1 7TQ      0.092500
     71 H22         1.0050    0.3910   -0.4000 h1        1 7TQ      0.095000
     72 H23        -0.4290    1.9880    1.2030 hc        1 7TQ      0.108500
     73 H24        -1.4930    0.9350    0.5060 hc        1 7TQ      0.108500
     74 H25         1.9940    0.2930    1.4590 ha        1 7TQ      0.147000
     75 H26         2.7200   -1.1260    3.2140 ha        1 7TQ      0.156000
     76 H27        -1.9220   -0.6120    2.3270 ha        1 7TQ      0.173000
     77 H28        -1.1760   -2.0280    4.0810 ha        1 7TQ      0.148000
     78 H29         1.3120   -4.7070    6.4490 hn        1 7TQ      0.230000
     79 H30         2.3510   -6.2620    4.3310 h1        1 7TQ      0.116000
     80 H31         2.9050   -6.4390    5.8270 h1        1 7TQ      0.116000
     81 H32         0.1060   -7.1270    3.7230 ha        1 7TQ      0.151000
     82 H33        -1.5780   -8.7460    4.1080 ha        1 7TQ      0.133000
     83 H34        -1.6700   -9.8580    6.2110 ha        1 7TQ      0.133500
     84 H35        -0.0620   -9.3150    7.8870 ha        1 7TQ      0.133500
     85 H36         1.6290   -7.6840    7.4870 ha        1 7TQ      0.132000
@<TRIPOS>BOND
     1    1    2 1   
     2    1   50 1   
     3    1   51 1   
     4    1   52 1   
     5    2    3 1   
     6    3    4 1   
     7    3    6 1   
     8    4    5 1   
     9    4   53 1   
    10    5   54 1   
    11    6   55 1   
    12    7    8 1   
    13    7   56 1   
    14    8    9 1   
    15    9   10 1   
    16    9   11 1   
    17   12   13 1   
    18   12   31 1   
    19   13   14 1   
    20   13   57 1   
    21   13   58 1   
    22   14   21 1   
    23   15   16 1   
    24   15   59 1   
    25   16   19 1   
    26   17   18 1   
    27   19   20 1   
    28   19   60 1   
    29   20   61 1   
    30   21   22 1   
    31   22   23 1   
    32   22   30 1   
    33   23   24 1   
    34   23   62 1   
    35   23   63 1   
    36   24   25 1   
    37   24   28 1   
    38   25   26 1   
    39   26   27 1   
    40   27   28 1   
    41   29   66 1   
    42   29   67 1   
    43   29   68 1   
    44   30   31 1   
    45   30   69 1   
    46   30   70 1   
    47   31   32 1   
    48   31   71 1   
    49   32   33 1   
    50   32   72 1   
    51   32   73 1   
    52   33   34 1   
    53   33   36 1   
    54   34   35 1   
    55   34   74 1   
    56   35   75 1   
    57   36   76 1   
    58   37   38 1   
    59   37   77 1   
    60   38   39 1   
    61   39   40 1   
    62   40   41 1   
    63   40   42 1   
    64   42   43 1   
    65   42   78 1   
    66   43   44 1   
    67   43   79 1   
    68   43   80 1   
    69   44   45 1   
    70   44   49 1   
    71   45   46 1   
    72   45   81 1   
    73   46   82 1   
    74   47   48 1   
    75   47   83 1   
    76   48   84 1   
    77   49   85 1   
@<TRIPOS>SUBSTRUCTURE
     1 7TQ         1 TEMP              0 ****  ****    0 ROOT
