@<TRIPOS>MOLECULE
7TQ
   86    91     1     0     0
SMALL
bcc


@<TRIPOS>ATOM
      1 CAA         0.0320   -0.2220   -0.1860 c3        1 7TQ      0.107700
      2 OBG         1.3660    0.2830   -0.1130 os        1 7TQ     -0.314900
      3 CBM         2.0070    0.1580    1.0920 ca        1 7TQ      0.205100
      4 CAS         3.3210    0.6740    1.1240 ca        1 7TQ     -0.211500
      5 CAU         4.0440    0.5990    2.3010 ca        1 7TQ      0.027000
      6 CAR         1.4470   -0.4340    2.2360 ca        1 7TQ     -0.211500
      7 CAT         2.2000   -0.4930    3.4010 ca        1 7TQ      0.027000
      8 CBP         3.5020    0.0230    3.4640 ca        1 7TQ     -0.444500
      9 SBW         4.4120   -0.1110    4.8510 sy        1 7TQ      1.514200
     10 OAE         3.8600   -1.1330    5.6600 o         1 7TQ     -0.664800
     11 OAF         5.7760   -0.2820    4.5030 o         1 7TQ     -0.664800
     12 NBU         4.2440    1.3270    5.6340 n3        1 7TQ     -0.789500
     13 CBB         2.9610    1.8010    6.0730 c3        1 7TQ      0.278100
     14 CBO         2.2410    2.7710    5.1720 ca        1 7TQ     -0.169300
     15 CAY         0.8520    2.6380    5.1220 ca        1 7TQ     -0.056000
     16 CBJ         0.0670    3.4740    4.3230 ca        1 7TQ     -0.056000
     17 CAG        -1.3420    3.3090    4.2830 cg        1 7TQ      0.232800
     18 NAC        -2.4970    3.1710    4.2470 n1        1 7TQ     -0.357800
     19 CAM         0.6880    4.4690    3.5580 ca        1 7TQ     -0.048000
     20 CAV         2.0640    4.6280    3.6060 ca        1 7TQ     -0.202000
     21 CBR         2.8790    3.7890    4.4110 ca        1 7TQ      0.219600
     22 NBT         4.2710    3.9510    4.4230 nh        1 7TQ     -0.689000
     23 CBC         4.8780    4.8010    3.4190 c3        1 7TQ      0.298100
     24 CBQ         6.3520    4.6350    3.2910 cc        1 7TQ     -0.249900
     25 CAW         7.1040    3.4660    3.0390 cd        1 7TQ      0.311200
     26 NBE         8.4570    3.7730    2.9600 nd        1 7TQ     -0.670000
     27 CAX         8.5450    5.1080    3.1500 cc        1 7TQ      0.401400
     28 NBV         7.2860    5.6830    3.3680 na        1 7TQ     -0.196900
     29 CAB         7.0040    7.0680    3.5480 c3        1 7TQ      0.017600
     30 CBD         4.9820    3.7130    5.6510 c3        1 7TQ      0.210800
     31 CBS         5.3570    2.2160    5.8640 c3        1 7TQ      0.224500
     32 CBA         5.9630    2.1210    7.2840 c3        1 7TQ     -0.065100
     33 CBL         6.7010    0.8490    7.5050 ca        1 7TQ     -0.045300
     34 CAO         6.2300   -0.0900    8.4320 ca        1 7TQ     -0.096500
     35 CAQ         6.9010   -1.2970    8.6260 ca        1 7TQ     -0.094500
     36 CAN         7.8780    0.5900    6.7850 ca        1 7TQ     -0.096500
     37 CAP         8.5630   -0.6100    6.9550 ca        1 7TQ     -0.094500
     38 CBN         8.0460   -1.5390    7.8610 ca        1 7TQ      0.041100
     39 OBH         8.5890   -2.8440    7.9070 os        1 7TQ     -0.307200
     40 CBI         9.7590   -3.0090    8.5680 c         1 7TQ      0.606100
     41 OAD        10.4250   -2.1740    9.1580 o         1 7TQ     -0.406000
     42 NBF        10.1870   -4.4410    8.4870 ny        1 7TQ     -0.647800
     43 CAZ        10.8380   -4.7380    7.1580 c3        1 7TQ      0.184100
     44 CBK        11.2370   -6.1680    7.0830 ca        1 7TQ     -0.198300
     45 CAK        10.3530   -7.1120    6.5450 ca        1 7TQ     -0.096000
     46 CAI        10.7450   -8.4450    6.4370 ca        1 7TQ     -0.120000
     47 CAH        12.0150   -8.8380    6.8640 ca        1 7TQ     -0.074000
     48 CAJ        12.8980   -7.8960    7.3980 ca        1 7TQ     -0.120000
     49 CAL        12.5120   -6.5620    7.5090 ca        1 7TQ     -0.096000
     50 H1         -0.2660    0.0010   -1.2430 h1        1 7TQ      0.056033
     51 H2          0.0200   -1.3220    0.0060 h1        1 7TQ      0.056033
     52 H3         -0.6300    0.3160    0.5340 h1        1 7TQ      0.056033
     53 H4          3.7480    1.1220    0.2150 ha        1 7TQ      0.157000
     54 H5          5.0780    0.9860    2.3290 ha        1 7TQ      0.150500
     55 H6          0.4290   -0.8480    2.2180 ha        1 7TQ      0.157000
     56 H7          1.7690   -0.9720    4.3000 ha        1 7TQ      0.150500
     57 H8          2.3020    0.8900    6.2220 h1        1 7TQ      0.059200
     58 H9          3.0720    2.2920    7.0860 h1        1 7TQ      0.059200
     59 H10         0.3600    1.8530    5.7220 ha        1 7TQ      0.144000
     60 H11         0.0820    5.1340    2.9220 ha        1 7TQ      0.151000
     61 H12         2.5100    5.4340    3.0020 ha        1 7TQ      0.141000
     62 H13         4.4200    4.5300    2.4200 h1        1 7TQ      0.055200
     63 H14         4.6310    5.8860    3.6310 h1        1 7TQ      0.055200
     64 H15         6.7390    2.4470    2.9080 h4        1 7TQ      0.047100
     65 H16         9.4680    5.6980    3.1390 h5        1 7TQ      0.068100
     66 H17         6.3780    7.4530    2.6980 h1        1 7TQ      0.060033
     67 H18         6.4440    7.2260    4.5100 h1        1 7TQ      0.060033
     68 H19         7.9660    7.6450    3.5840 h1        1 7TQ      0.060033
     69 H20         5.9440    4.3000    5.6510 h1        1 7TQ      0.057700
     70 H21         4.3650    4.0590    6.5310 h1        1 7TQ      0.057700
     71 H22         6.1740    1.9500    5.1200 h1        1 7TQ      0.087700
     72 H23         6.6790    2.9790    7.4070 hc        1 7TQ      0.066200
     73 H24         5.1550    2.2430    8.0520 hc        1 7TQ      0.066200
     74 H25         5.3110    0.1120    9.0050 ha        1 7TQ      0.161500
     75 H26         6.5230   -2.0460    9.3350 ha        1 7TQ      0.152500
     76 H27         8.2500    1.3280    6.0550 ha        1 7TQ      0.161500
     77 H28         9.4720   -0.8250    6.3760 ha        1 7TQ      0.152500
     78 H29        10.8520   -4.6300    9.2470 hn        1 7TQ      0.470300
     79 H30        11.7320   -4.0570    7.0640 hx        1 7TQ      0.117200
     80 H31        10.0860   -4.4770    6.3560 hx        1 7TQ      0.117200
     81 H32         9.3570   -6.8030    6.1910 ha        1 7TQ      0.142500
     82 H33        10.0530   -9.1870    6.0080 ha        1 7TQ      0.160500
     83 H34        12.3250   -9.8920    6.7730 ha        1 7TQ      0.161000
     84 H35        13.9020   -8.2060    7.7260 ha        1 7TQ      0.160500
     85 H36        13.2170   -5.8200    7.9130 ha        1 7TQ      0.142500
     86 HBF2        9.3660   -5.0500    8.6000 hn        1 7TQ      0.470300
@<TRIPOS>BOND
     1    1    2 1   
     2    1   50 1   
     3    1   51 1   
     4    1   52 1   
     5    2    3 1   
     6    3    4 ar  
     7    3    6 ar  
     8    4    5 ar  
     9    4   53 1   
    10    5    8 ar  
    11    5   54 1   
    12    6    7 ar  
    13    6   55 1   
    14    7    8 ar  
    15    7   56 1   
    16    8    9 1   
    17    9   10 2   
    18    9   11 2   
    19    9   12 1   
    20   12   13 1   
    21   12   31 1   
    22   13   14 1   
    23   13   57 1   
    24   13   58 1   
    25   14   15 ar  
    26   14   21 ar  
    27   15   16 ar  
    28   15   59 1   
    29   16   17 1   
    30   16   19 ar  
    31   17   18 3   
    32   19   20 ar  
    33   19   60 1   
    34   20   21 ar  
    35   20   61 1   
    36   21   22 1   
    37   22   23 1   
    38   22   30 1   
    39   23   24 1   
    40   23   62 1   
    41   23   63 1   
    42   24   25 2   
    43   24   28 1   
    44   25   26 1   
    45   25   64 1   
    46   26   27 2   
    47   27   28 1   
    48   27   65 1   
    49   28   29 1   
    50   29   66 1   
    51   29   67 1   
    52   29   68 1   
    53   30   31 1   
    54   30   69 1   
    55   30   70 1   
    56   31   32 1   
    57   31   71 1   
    58   32   33 1   
    59   32   72 1   
    60   32   73 1   
    61   33   34 ar  
    62   33   36 ar  
    63   34   35 ar  
    64   34   74 1   
    65   35   38 ar  
    66   35   75 1   
    67   36   37 ar  
    68   36   76 1   
    69   37   38 ar  
    70   37   77 1   
    71   38   39 1   
    72   39   40 1   
    73   40   41 2   
    74   40   42 1   
    75   42   43 1   
    76   42   78 1   
    77   42   86 1   
    78   43   44 1   
    79   43   79 1   
    80   43   80 1   
    81   44   45 ar  
    82   44   49 ar  
    83   45   46 ar  
    84   45   81 1   
    85   46   47 ar  
    86   46   82 1   
    87   47   48 ar  
    88   47   83 1   
    89   48   49 ar  
    90   48   84 1   
    91   49   85 1   
@<TRIPOS>SUBSTRUCTURE
     1 7TQ         1 TEMP              0 ****  ****    0 ROOT
