@<TRIPOS>MOLECULE
7TQ
   86    90     1     0     0
SMALL
bcc


@<TRIPOS>ATOM
      1 CAA        -0.4570    1.5620   -0.4940 c3        1 7TQ     -0.081000
      2 OBG         0.9140    1.2160   -0.6810 os        1 7TQ     -0.199000
      3 CBM         1.6020    0.8010    0.4310 ca        1 7TQ      0.152000
      4 CAS         2.9420    0.4210    0.1950 ca        1 7TQ     -0.211500
      5 CAU         3.7150   -0.0110    1.2590 ca        1 7TQ      0.019500
      6 CAR         1.0630    0.7390    1.7250 ca        1 7TQ     -0.211500
      7 CAT         1.8670    0.3050    2.7710 ca        1 7TQ      0.019500
      8 CBP         3.2000   -0.0730    2.5650 ca        1 7TQ     -0.880000
      9 SBW         4.1380   -0.6550    3.8240 s6        1 7TQ      2.846000
     10 OAE         3.3020   -1.2520    4.8020 o         1 7TQ     -0.940000
     11 OAF         5.1380   -1.4920    3.2790 o         1 7TQ     -0.940000
     12 NBU         4.8200    0.6910    4.4700 n3        1 7TQ     -0.818000
     13 CBB         4.4680    1.1450    5.7900 c3        1 7TQ     -0.002000
     14 CBO         3.2100    1.9730    5.8980 ca        1 7TQ     -0.085000
     15 CAY         2.0170    1.2810    6.1470 ca        1 7TQ     -0.091000
     16 CBJ         0.8170    1.9620    6.3640 ca        1 7TQ     -0.015000
     17 CAG        -0.3810    1.2410    6.6190 c1        1 7TQ     -0.104000
     18 NAC        -1.3620    0.6520    6.8280 n1        1 7TQ     -0.018000
     19 CAM         0.8000    3.3640    6.3350 ca        1 7TQ     -0.077000
     20 CAV         1.9700    4.0630    6.0780 ca        1 7TQ     -0.159000
     21 CBR         3.1880    3.3830    5.8450 ca        1 7TQ      0.081000
     22 NBT         4.3610    4.1650    5.5700 nh        1 7TQ     -0.111000
     23 CBC         4.1330    5.2860    4.6410 c3        1 7TQ     -0.033000
     24 CBQ         5.2630    5.5350    3.7140 c2        1 7TQ     -0.166000
     25 CAW         5.5370    4.9080    2.4790 c2        1 7TQ     -0.142000
     26 NBE         6.6750    5.4590    1.9030 n2        1 7TQ     -0.140000
     27 CAX         7.0970    6.4150    2.7610 c2        1 7TQ     -0.079000
     28 NBV         6.2710    6.4990    3.8890 na        1 7TQ     -0.148000
     29 CAB         6.3910    7.4210    4.9680 c3        1 7TQ     -0.083000
     30 CBD         5.4960    3.8920    6.1610 c1        1 7TQ     -0.167000
     31 CBS         5.8120    1.4340    3.7430 c3        1 7TQ     -0.001000
     32 CBA         7.1980    1.5610    4.3910 c3        1 7TQ     -0.152000
     33 CBL         7.8610    0.2520    4.6240 ca        1 7TQ     -0.051000
     34 CAO         7.6350   -0.4510    5.8140 ca        1 7TQ     -0.104500
     35 CAQ         8.2250   -1.6950    6.0290 ca        1 7TQ     -0.117000
     36 CAN         8.7200   -0.2860    3.6560 ca        1 7TQ     -0.104500
     37 CAP         9.3320   -1.5210    3.8540 ca        1 7TQ     -0.117000
     38 CBN         9.0570   -2.2180    5.0380 ca        1 7TQ      0.043000
     39 OBH         9.5720   -3.5240    5.0830 os        1 7TQ     -0.196000
     40 CBI        10.1100   -3.9810    6.2560 c2        1 7TQ      0.403000
     41 OAD        10.1820   -3.2940    7.2880 o         1 7TQ     -0.397000
     42 NBF        10.5120   -5.3100    6.1510 n         1 7TQ     -0.381000
     43 CAZ        11.3050   -5.9100    7.1630 c3        1 7TQ      0.040000
     44 CBK        10.4650   -6.5770    8.3180 c3        1 7TQ     -0.209000
     45 CAK        11.2630   -7.6030    9.0090 c2        1 7TQ      0.055000
     46 CAI        11.3790   -7.6300   10.3730 c2        1 7TQ     -0.216000
     47 CAH        10.7550   -6.6390   11.1640 c2        1 7TQ      0.132000
     48 CAJ        10.0070   -5.6160   10.5660 c2        1 7TQ     -0.216000
     49 CAL         9.8670   -5.5600    9.1970 c2        1 7TQ      0.055000
     50 H1         -1.0340    0.6870   -0.1100 h1        1 7TQ      0.093000
     51 H2         -0.7930    1.8390   -1.5260 h1        1 7TQ      0.093000
     52 H3         -0.5490    2.4330    0.1990 h1        1 7TQ      0.093000
     53 H4          3.3440    0.4680   -0.8270 ha        1 7TQ      0.156000
     54 H5          4.7560   -0.3350    1.0770 ha        1 7TQ      0.153000
     55 H6          0.0180    1.0220    1.9170 ha        1 7TQ      0.156000
     56 H7          1.4440    0.2430    3.7910 ha        1 7TQ      0.153000
     57 H8          4.3190    0.2260    6.4390 h1        1 7TQ      0.130500
     58 H9          5.3250    1.7290    6.2450 h1        1 7TQ      0.130500
     59 H10         2.0360    0.1730    6.1740 ha        1 7TQ      0.184000
     60 H11        -0.1390    3.9100    6.5200 ha        1 7TQ      0.154000
     61 H12         1.9360    5.1650    6.0680 ha        1 7TQ      0.145000
     62 H13         3.2230    5.0650    4.0100 h1        1 7TQ      0.112500
     63 H14         3.9170    6.2090    5.2550 h1        1 7TQ      0.112500
     64 H15         4.9710    4.1160    1.9880 h4        1 7TQ      0.183000
     65 H16         7.9710    7.0610    2.6200 h5        1 7TQ      0.206000
     66 H17         5.5010    8.1080    4.9940 h1        1 7TQ      0.099667
     67 H18         7.3220    8.0340    4.8370 h1        1 7TQ      0.099667
     68 H19         6.4490    6.8670    5.9440 h1        1 7TQ      0.099667
     69 H20         6.3490    4.5600    5.9230 ha        1 7TQ      0.057000
     70 H21         5.4390    2.4860    3.5630 h1        1 7TQ      0.089000
     71 H22         5.9410    0.9350    2.7360 h1        1 7TQ      0.089000
     72 H23         7.8230    2.1840    3.6930 hc        1 7TQ      0.110000
     73 H24         7.1150    2.1290    5.3580 hc        1 7TQ      0.110000
     74 H25         6.9720   -0.0220    6.5820 ha        1 7TQ      0.145500
     75 H26         8.0470   -2.2470    6.9620 ha        1 7TQ      0.147000
     76 H27         8.9080    0.2670    2.7220 ha        1 7TQ      0.145500
     77 H28         9.9930   -1.9570    3.0930 ha        1 7TQ      0.147000
     78 H29        11.9330   -6.7250    6.7040 h1        1 7TQ      0.128500
     79 H30         9.5930   -7.1300    7.8170 hc        1 7TQ      0.226000
     80 H31        11.9730   -5.1420    7.6500 h1        1 7TQ      0.128500
     81 H32        11.7580   -8.3680    8.3810 ha        1 7TQ      0.197500
     82 H33        11.9670   -8.4220   10.8730 ha        1 7TQ      0.194000
     83 H34        10.8670   -6.6710   12.2660 ha        1 7TQ      0.188000
     84 H35         9.5370   -4.8420   11.2020 ha        1 7TQ      0.194000
     85 H36         9.3070   -4.7290    8.7140 ha        1 7TQ      0.197500
     86 HBF2       10.4050   -5.7680    5.2740 hn        1 7TQ      0.268000
@<TRIPOS>BOND
     1    1    2 1   
     2    1   50 1   
     3    1   51 1   
     4    1   52 1   
     5    2    3 1   
     6    3    4 1   
     7    3    6 1   
     8    4    5 1   
     9    4   53 1   
    10    5    8 1   
    11    5   54 1   
    12    6    7 1   
    13    6   55 1   
    14    7    8 1   
    15    7   56 1   
    16    8    9 1   
    17    9   10 1   
    18    9   11 1   
    19    9   12 1   
    20   12   13 1   
    21   12   31 1   
    22   13   14 1   
    23   13   57 1   
    24   13   58 1   
    25   14   15 1   
    26   14   21 1   
    27   15   16 1   
    28   15   59 1   
    29   16   17 1   
    30   16   19 1   
    31   17   18 1   
    32   19   20 1   
    33   19   60 1   
    34   20   21 1   
    35   20   61 1   
    36   21   22 1   
    37   22   23 1   
    38   22   30 1   
    39   23   24 1   
    40   23   62 1   
    41   23   63 1   
    42   24   25 1   
    43   24   28 1   
    44   25   26 1   
    45   25   64 1   
    46   26   27 1   
    47   27   28 1   
    48   27   65 1   
    49   28   29 1   
    50   29   66 1   
    51   29   67 1   
    52   29   68 1   
    53   30   69 1   
    54   31   32 1   
    55   31   70 1   
    56   31   71 1   
    57   32   33 1   
    58   32   72 1   
    59   32   73 1   
    60   33   34 1   
    61   33   36 1   
    62   34   35 1   
    63   34   74 1   
    64   35   38 1   
    65   35   75 1   
    66   36   37 1   
    67   36   76 1   
    68   37   38 1   
    69   37   77 1   
    70   38   39 1   
    71   39   40 1   
    72   40   41 1   
    73   40   42 1   
    74   42   43 1   
    75   42   86 1   
    76   43   44 1   
    77   43   78 1   
    78   43   80 1   
    79   44   45 1   
    80   44   49 1   
    81   44   79 1   
    82   45   46 1   
    83   45   81 1   
    84   46   47 1   
    85   46   82 1   
    86   47   48 1   
    87   47   83 1   
    88   48   49 1   
    89   48   84 1   
    90   49   85 1   
@<TRIPOS>SUBSTRUCTURE
     1 7TQ         1 TEMP              0 ****  ****    0 ROOT
