@<TRIPOS>MOLECULE
7TQ
   85    90     1     0     0
SMALL
bcc


@<TRIPOS>ATOM
      1 CAA         5.5320    4.8540   -2.9790 c3        1 7TQ      0.109700
      2 OBG         4.8620    3.6470   -3.3340 os        1 7TQ     -0.321900
      3 CBM         3.9040    3.1960   -2.4570 ca        1 7TQ      0.190100
      4 CAS         3.2540    2.0070   -2.8460 ca        1 7TQ     -0.212000
      5 CAU         2.2780    1.4740   -2.0190 ca        1 7TQ      0.023500
      6 CAR         3.5600    3.8370   -1.2570 ca        1 7TQ     -0.212000
      7 CAT         2.5770    3.2750   -0.4510 ca        1 7TQ      0.023500
      8 CBP         1.9260    2.0880   -0.8070 ca        1 7TQ     -0.421500
      9 SBW         0.6930    1.4580    0.1460 sy        1 7TQ      1.513200
     10 OAE         0.2280    2.4990    0.9800 o         1 7TQ     -0.650800
     11 OAF        -0.2480    0.8390   -0.7060 o         1 7TQ     -0.650800
     12 NBU         1.4230    0.3180    1.0780 n3        1 7TQ     -0.787500
     13 CBB         2.4630    0.6570    2.0060 c3        1 7TQ      0.278100
     14 CBO         3.8860    0.4710    1.5410 ca        1 7TQ     -0.162300
     15 CAY         4.8060    1.4050    2.0190 ca        1 7TQ     -0.055000
     16 CBJ         6.1560    1.3510    1.6590 ca        1 7TQ     -0.067000
     17 CAG         7.0700    2.3180    2.1540 cg        1 7TQ      0.241800
     18 NAC         7.8200    3.1110    2.5570 n1        1 7TQ     -0.375800
     19 CAM         6.5930    0.3370    0.7970 ca        1 7TQ     -0.052000
     20 CAV         5.6980   -0.6090    0.3250 ca        1 7TQ     -0.209000
     21 CBR         4.3230   -0.5780    0.6830 ca        1 7TQ      0.221600
     22 NBT         3.4330   -1.5320    0.1750 nh        1 7TQ     -0.678000
     23 CBC         3.9040   -2.4090   -0.8790 c3        1 7TQ      0.297100
     24 CBQ         2.8360   -3.1860   -1.5620 cc        1 7TQ     -0.252900
     25 CAW         1.7170   -2.7240   -2.2900 cd        1 7TQ      0.325200
     26 NBE         1.0110   -3.7970   -2.8210 nd        1 7TQ     -0.661000
     27 CAX         1.6760   -4.9070   -2.4320 cc        1 7TQ      0.399400
     28 NBV         2.7960   -4.5900   -1.6510 na        1 7TQ     -0.201900
     29 CAB         3.7380   -5.5070   -1.1040 c3        1 7TQ      0.021600
     30 CBD         2.3620   -1.9930    1.0240 c3        1 7TQ      0.201800
     31 CBS         1.0950   -1.0870    0.9910 c3        1 7TQ      0.226500
     32 CBA         0.1810   -1.6010    2.1260 c3        1 7TQ     -0.047100
     33 CBL        -1.2300   -1.1510    2.0050 ca        1 7TQ     -0.104300
     34 CAO        -1.7690   -0.2560    2.9380 ca        1 7TQ     -0.104000
     35 CAQ        -3.1050    0.1270    2.8640 ca        1 7TQ     -0.123000
     36 CAN        -2.0450   -1.6610    0.9870 ca        1 7TQ     -0.104000
     37 CAP        -3.3820   -1.2840    0.8890 ca        1 7TQ     -0.123000
     38 CBN        -3.9000   -0.3890    1.8310 ca        1 7TQ      0.119100
     39 OBH        -5.1900    0.1340    1.7380 os        1 7TQ     -0.369200
     40 CBI        -6.2530   -0.7520    1.6080 c         1 7TQ      0.728100
     41 OAD        -6.0380   -1.9600    1.4390 o         1 7TQ     -0.564000
     42 NBF        -7.4730   -0.1070    1.7690 n         1 7TQ     -0.502900
     43 CAZ        -8.6620   -0.7310    1.2360 c3        1 7TQ      0.119300
     44 CBK        -9.0790   -0.2400   -0.1210 ca        1 7TQ     -0.134300
     45 CAK        -8.9830   -1.0780   -1.2350 ca        1 7TQ     -0.113500
     46 CAI        -9.3930   -0.6230   -2.4880 ca        1 7TQ     -0.130000
     47 CAH        -9.8950    0.6710   -2.6330 ca        1 7TQ     -0.120000
     48 CAJ        -9.9880    1.5100   -1.5230 ca        1 7TQ     -0.130000
     49 CAL        -9.5820    1.0570   -0.2690 ca        1 7TQ     -0.113500
     50 H1          4.8070    5.7000   -2.9100 h1        1 7TQ      0.051033
     51 H2          6.0850    4.7280   -2.0160 h1        1 7TQ      0.051033
     52 H3          6.2450    5.0110   -3.8280 h1        1 7TQ      0.051033
     53 H4          3.5250    1.5270   -3.7970 ha        1 7TQ      0.151000
     54 H5          1.7490    0.5530   -2.3260 ha        1 7TQ      0.152000
     55 H6          4.0520    4.7710   -0.9520 ha        1 7TQ      0.151000
     56 H7          2.2890    3.7840    0.4870 ha        1 7TQ      0.152000
     57 H8          2.3180    1.7440    2.2920 h1        1 7TQ      0.060700
     58 H9          2.3340    0.0500    2.9530 h1        1 7TQ      0.060700
     59 H10         4.4610    2.2080    2.6910 ha        1 7TQ      0.143000
     60 H11         7.6510    0.2860    0.4980 ha        1 7TQ      0.144000
     61 H12         6.0890   -1.3960   -0.3380 ha        1 7TQ      0.138000
     62 H13         4.3980   -1.7610   -1.6650 h1        1 7TQ      0.050200
     63 H14         4.6890   -3.1180   -0.4710 h1        1 7TQ      0.050200
     64 H15         1.3930   -1.6930   -2.4430 h4        1 7TQ      0.051100
     65 H16         1.4010   -5.9380   -2.6750 h5        1 7TQ      0.064100
     66 H17         4.7500   -5.3540   -1.5690 h1        1 7TQ      0.055700
     67 H18         3.8250   -5.3550    0.0060 h1        1 7TQ      0.055700
     68 H19         3.3990   -6.5580   -1.3050 h1        1 7TQ      0.055700
     69 H20         2.0390   -3.0220    0.7010 h1        1 7TQ      0.054700
     70 H21         2.7240   -2.0630    2.0910 h1        1 7TQ      0.054700
     71 H22         0.5590   -1.2560    0.0060 h1        1 7TQ      0.091700
     72 H23         0.1990   -2.7250    2.0880 hc        1 7TQ      0.052700
     73 H24         0.6010   -1.2950    3.1210 hc        1 7TQ      0.052700
     74 H25        -1.1340    0.1520    3.7390 ha        1 7TQ      0.136500
     75 H26        -3.5330    0.8360    3.5870 ha        1 7TQ      0.154000
     76 H27        -1.6250   -2.3590    0.2460 ha        1 7TQ      0.136500
     77 H28        -4.0290   -1.6930    0.0990 ha        1 7TQ      0.154000
     78 H29        -7.4410    0.8890    1.7050 hn        1 7TQ      0.312500
     79 H30        -8.5040   -1.8490    1.2100 h1        1 7TQ      0.077200
     80 H31        -9.4920   -0.5080    1.9710 h1        1 7TQ      0.077200
     81 H32        -8.5810   -2.0970   -1.1250 ha        1 7TQ      0.136000
     82 H33        -9.3160   -1.2850   -3.3630 ha        1 7TQ      0.134500
     83 H34       -10.2150    1.0290   -3.6230 ha        1 7TQ      0.134000
     84 H35       -10.3820    2.5310   -1.6360 ha        1 7TQ      0.134500
     85 H36        -9.6610    1.7170    0.6070 ha        1 7TQ      0.136000
@<TRIPOS>BOND
     1    1    2 1   
     2    1   50 1   
     3    1   51 1   
     4    1   52 1   
     5    2    3 1   
     6    3    4 ar  
     7    3    6 ar  
     8    4    5 ar  
     9    4   53 1   
    10    5    8 ar  
    11    5   54 1   
    12    6    7 ar  
    13    6   55 1   
    14    7    8 ar  
    15    7   56 1   
    16    8    9 1   
    17    9   10 2   
    18    9   11 2   
    19    9   12 1   
    20   12   13 1   
    21   12   31 1   
    22   13   14 1   
    23   13   57 1   
    24   13   58 1   
    25   14   15 ar  
    26   14   21 ar  
    27   15   16 ar  
    28   15   59 1   
    29   16   17 1   
    30   16   19 ar  
    31   17   18 3   
    32   19   20 ar  
    33   19   60 1   
    34   20   21 ar  
    35   20   61 1   
    36   21   22 1   
    37   22   23 1   
    38   22   30 1   
    39   23   24 1   
    40   23   62 1   
    41   23   63 1   
    42   24   25 2   
    43   24   28 1   
    44   25   26 1   
    45   25   64 1   
    46   26   27 2   
    47   27   28 1   
    48   27   65 1   
    49   28   29 1   
    50   29   66 1   
    51   29   67 1   
    52   29   68 1   
    53   30   31 1   
    54   30   69 1   
    55   30   70 1   
    56   31   32 1   
    57   31   71 1   
    58   32   33 1   
    59   32   72 1   
    60   32   73 1   
    61   33   34 ar  
    62   33   36 ar  
    63   34   35 ar  
    64   34   74 1   
    65   35   38 ar  
    66   35   75 1   
    67   36   37 ar  
    68   36   76 1   
    69   37   38 ar  
    70   37   77 1   
    71   38   39 1   
    72   39   40 1   
    73   40   41 2   
    74   40   42 1   
    75   42   43 1   
    76   42   78 1   
    77   43   44 1   
    78   43   79 1   
    79   43   80 1   
    80   44   45 ar  
    81   44   49 ar  
    82   45   46 ar  
    83   45   81 1   
    84   46   47 ar  
    85   46   82 1   
    86   47   48 ar  
    87   47   83 1   
    88   48   49 ar  
    89   48   84 1   
    90   49   85 1   
@<TRIPOS>SUBSTRUCTURE
     1 7TQ         1 TEMP              0 ****  ****    0 ROOT
