@<TRIPOS>MOLECULE
7TR
   85    89     1     0     0
SMALL
bcc


@<TRIPOS>ATOM
      1 CAA        -0.1520   -1.0100   -1.5900 c3        1 7TR     -0.133100
      2 CAW         1.0240   -1.4600   -0.7530 c3        1 7TR      0.110800
      3 NBP         1.2930   -0.5610    0.4240 n4        1 7TR     -0.567200
      4 CAX         1.9590    0.7220    0.0150 c3        1 7TR      0.110800
      5 CAB         1.9740    1.7550    1.1200 c3        1 7TR     -0.133100
      6 CBF         2.1600   -1.2920    1.4130 c         1 7TR      0.625100
      7 OAF         3.2530   -1.7460    1.1170 o         1 7TR     -0.399000
      8 OBE         1.5970   -1.2700    2.6530 os        1 7TR     -0.322200
      9 CBJ         1.8170   -2.4110    3.4600 ca        1 7TR      0.046100
     10 CAN         3.1000   -2.8930    3.7290 ca        1 7TR     -0.110000
     11 CAL         3.2200   -4.0370    4.5140 ca        1 7TR     -0.110000
     12 CAM         0.6620   -2.9830    4.0060 ca        1 7TR     -0.110000
     13 CAK         0.8080   -4.1180    4.8010 ca        1 7TR     -0.110000
     14 CBH         2.0750   -4.6750    5.0180 ca        1 7TR     -0.054300
     15 CAY         2.2240   -5.9950    5.6930 c3        1 7TR     -0.058100
     16 CBO         2.4090   -7.0790    4.6040 c3        1 7TR      0.196500
     17 CBB         1.0180   -7.6510    4.2310 c3        1 7TR      0.179800
     18 NBQ         0.9980   -8.6620    3.2010 nh        1 7TR     -0.645000
     19 CBA         1.5340   -8.2430    1.9060 c3        1 7TR      0.243100
     20 CBM         0.8480   -7.0460    1.3460 cc        1 7TR     -0.206900
     21 CAT         1.4120   -5.8090    0.9610 cd        1 7TR      0.293200
     22 NBC         0.4250   -4.9670    0.4610 nd        1 7TR     -0.732000
     23 CAU        -0.7300   -5.6730    0.5310 cc        1 7TR      0.384400
     24 NBS        -0.5210   -6.9500    1.0630 na        1 7TR     -0.174900
     25 CAD        -1.5160   -7.9450    1.2960 c3        1 7TR      0.021600
     26 CBN         1.3700   -9.9820    3.5820 ca        1 7TR      0.159600
     27 CAS         0.8170  -11.0480    2.8270 ca        1 7TR     -0.149000
     28 CAJ         1.0510  -12.3710    3.1680 ca        1 7TR     -0.071000
     29 CBG         1.8460  -12.6770    4.2810 ca        1 7TR     -0.026000
     30 CAI         2.0870  -14.0300    4.6410 cg        1 7TR      0.225800
     31 NAE         2.2870  -15.1370    4.9360 n1        1 7TR     -0.345800
     32 CAV         2.4080  -11.6400    5.0300 ca        1 7TR     -0.072000
     33 CBK         2.1930  -10.3000    4.6880 ca        1 7TR     -0.152300
     34 CAZ         2.8540   -9.2780    5.5790 c3        1 7TR      0.281100
     35 NBR         3.3680   -8.1080    4.9340 n3        1 7TR     -0.800500
     36 SBT         4.8960   -7.8690    4.3530 sy        1 7TR      1.523200
     37 OAG         4.8880   -8.0760    2.9550 o         1 7TR     -0.669800
     38 OAH         5.3050   -6.5710    4.7440 o         1 7TR     -0.669800
     39 CBL         5.8160   -9.0230    5.1070 ca        1 7TR     -0.459500
     40 CAQ         6.3330   -8.8020    6.3970 ca        1 7TR      0.026500
     41 CAO         7.1550   -9.7250    7.0160 ca        1 7TR     -0.214000
     42 CBI         7.4870  -10.9170    6.3320 ca        1 7TR      0.211100
     43 OBD         8.3000  -11.7730    7.0250 os        1 7TR     -0.310900
     44 CAC         8.6800  -12.9800    6.3630 c3        1 7TR      0.106700
     45 CAP         6.9940  -11.1550    5.0390 ca        1 7TR     -0.214000
     46 CAR         6.1710  -10.2080    4.4450 ca        1 7TR      0.026500
     47 H1         -0.3110   -1.7810   -2.3890 hc        1 7TR      0.077533
     48 H2          0.0350   -0.0290   -2.0890 hc        1 7TR      0.077533
     49 H3         -1.0900   -0.9390   -0.9870 hc        1 7TR      0.077533
     50 H4          1.9670   -1.4960   -1.3690 hx        1 7TR      0.118200
     51 H5          0.8260   -2.4990   -0.3470 hx        1 7TR      0.118200
     52 H6          1.3970    1.1180   -0.8800 hx        1 7TR      0.118200
     53 H7          3.0120    0.4670   -0.3030 hx        1 7TR      0.118200
     54 H8          0.9420    2.0960    1.3800 hc        1 7TR      0.077533
     55 H9          2.4660    1.3620    2.0450 hc        1 7TR      0.077533
     56 H10         2.5570    2.6410    0.7600 hc        1 7TR      0.077533
     57 H11         3.9910   -2.4060    3.3050 ha        1 7TR      0.159000
     58 H12         4.2200   -4.4700    4.7160 ha        1 7TR      0.174000
     59 H13        -0.3280   -2.5520    3.8080 ha        1 7TR      0.159000
     60 H14        -0.0840   -4.5920    5.2390 ha        1 7TR      0.174000
     61 H15         1.3290   -6.2300    6.3240 hc        1 7TR      0.073700
     62 H16         3.1190   -5.9650    6.3710 hc        1 7TR      0.073700
     63 H17         2.8140   -6.5530    3.6780 h1        1 7TR      0.060700
     64 H18         0.5210   -8.0750    5.1480 h1        1 7TR      0.067700
     65 H19         0.3970   -6.7840    3.8640 h1        1 7TR      0.067700
     66 H20         2.6420   -8.0080    1.9660 h1        1 7TR      0.079200
     67 H21         1.4100   -9.1060    1.1860 h1        1 7TR      0.079200
     68 H22         2.4600   -5.5140    1.0100 h4        1 7TR      0.048100
     69 H23        -1.7170   -5.3260    0.2100 h5        1 7TR      0.059100
     70 H24        -1.8590   -7.9050    2.3660 h1        1 7TR      0.063367
     71 H25        -2.3930   -7.7690    0.6180 h1        1 7TR      0.063367
     72 H26        -1.0860   -8.9630    1.0970 h1        1 7TR      0.063367
     73 H27         0.1780  -10.8290    1.9560 ha        1 7TR      0.142000
     74 H28         0.6080  -13.1820    2.5670 ha        1 7TR      0.153000
     75 H29         3.0370  -11.8840    5.9020 ha        1 7TR      0.148000
     76 H30         2.1020   -8.9700    6.3670 h1        1 7TR      0.064200
     77 H31         3.7110   -9.7770    6.1250 h1        1 7TR      0.064200
     78 H32         6.0890   -7.8570    6.9170 ha        1 7TR      0.157500
     79 H33         7.5610   -9.5510    8.0240 ha        1 7TR      0.161500
     80 H34         7.7800  -13.6000    6.1360 h1        1 7TR      0.058033
     81 H35         9.2520  -12.7510    5.4320 h1        1 7TR      0.058033
     82 H36         9.3330  -13.4870    7.1190 h1        1 7TR      0.058033
     83 H37         7.2570  -12.0730    4.4940 ha        1 7TR      0.161500
     84 H38         5.7950  -10.3830    3.4190 ha        1 7TR      0.157500
     85 HBP1        0.4000   -0.3360    0.8870 hn        1 7TR      0.462800
@<TRIPOS>BOND
     1    1    2 1   
     2    1   47 1   
     3    1   48 1   
     4    1   49 1   
     5    2    3 1   
     6    2   50 1   
     7    2   51 1   
     8    3    4 1   
     9    3    6 1   
    10    3   85 1   
    11    4    5 1   
    12    4   52 1   
    13    4   53 1   
    14    5   54 1   
    15    5   55 1   
    16    5   56 1   
    17    6    7 2   
    18    6    8 1   
    19    8    9 1   
    20    9   10 ar  
    21    9   12 ar  
    22   10   11 ar  
    23   10   57 1   
    24   11   14 ar  
    25   11   58 1   
    26   12   13 ar  
    27   12   59 1   
    28   13   14 ar  
    29   13   60 1   
    30   14   15 1   
    31   15   16 1   
    32   15   61 1   
    33   15   62 1   
    34   16   17 1   
    35   16   35 1   
    36   16   63 1   
    37   17   18 1   
    38   17   64 1   
    39   17   65 1   
    40   18   19 1   
    41   18   26 1   
    42   19   20 1   
    43   19   66 1   
    44   19   67 1   
    45   20   21 2   
    46   20   24 1   
    47   21   22 1   
    48   21   68 1   
    49   22   23 2   
    50   23   24 1   
    51   23   69 1   
    52   24   25 1   
    53   25   70 1   
    54   25   71 1   
    55   25   72 1   
    56   26   27 ar  
    57   26   33 ar  
    58   27   28 ar  
    59   27   73 1   
    60   28   29 ar  
    61   28   74 1   
    62   29   30 1   
    63   29   32 ar  
    64   30   31 3   
    65   32   33 ar  
    66   32   75 1   
    67   33   34 1   
    68   34   35 1   
    69   34   76 1   
    70   34   77 1   
    71   35   36 1   
    72   36   37 2   
    73   36   38 2   
    74   36   39 1   
    75   39   40 ar  
    76   39   46 ar  
    77   40   41 ar  
    78   40   78 1   
    79   41   42 ar  
    80   41   79 1   
    81   42   43 1   
    82   42   45 ar  
    83   43   44 1   
    84   44   80 1   
    85   44   81 1   
    86   44   82 1   
    87   45   46 ar  
    88   45   83 1   
    89   46   84 1   
@<TRIPOS>SUBSTRUCTURE
     1 7TR         1 TEMP              0 ****  ****    0 ROOT
