@<TRIPOS>MOLECULE
7TR
   84    75     1     0     0
SMALL
bcc


@<TRIPOS>ATOM
      1 CAA         2.6000    7.8570   -5.2200 c3        1 7TR     -0.244000
      2 CAW         3.1320    7.5170   -3.8620 c3        1 7TR     -0.026500
      3 NBP         3.0020    6.0560   -3.6300 n3        1 7TR     -0.290000
      4 CAX         3.8900    5.1100   -4.3590 c3        1 7TR     -0.026500
      5 CAB         3.2090    4.6660   -5.6600 c3        1 7TR     -0.244000
      6 CBF         2.1460    5.5630   -2.5500 c1        1 7TR      0.392000
      7 OAF         2.3120    5.9630   -1.4130 o         1 7TR     -0.382000
      8 OBE         1.1060    4.6270   -2.8330 o         1 7TR     -0.232000
      9 CBJ         0.8180    3.7230   -1.7430 c1        1 7TR      0.070000
     10 CAN         1.4010    2.4600   -1.7150 c1        1 7TR     -0.128000
     11 CAL         1.0320    1.5400   -0.7240 c1        1 7TR     -0.121000
     12 CAM        -0.1280    4.0690   -0.7910 c1        1 7TR     -0.122000
     13 CAK        -0.4930    3.1570    0.1910 c1        1 7TR     -0.122000
     14 CBH         0.0930    1.8870    0.2200 c1        1 7TR     -0.089000
     15 CAY        -0.3180    0.8520    1.3500 c3        1 7TR     -0.145000
     16 CBO        -0.8330   -0.4380    0.7040 c3        1 7TR      0.007000
     17 CBB        -2.3430   -0.4700    0.7860 c3        1 7TR     -0.017000
     18 NBQ        -2.8490   -1.7170    0.2960 n3        1 7TR     -0.294000
     19 CBA        -4.0670   -1.4700   -0.5390 c3        1 7TR      0.065000
     20 CBM        -4.0860   -2.4490   -1.7210 c2        1 7TR     -0.171000
     21 CAT        -3.2720   -2.3950   -2.8170 c1        1 7TR     -0.139000
     22 NBC        -3.6750   -3.3530   -3.6850 n2        1 7TR     -0.133000
     23 CAU        -4.7310   -3.9990   -3.1360 c1        1 7TR     -0.094000
     24 NBS        -4.9840   -3.4370   -1.9170 n2        1 7TR     -0.159000
     25 CAD        -6.0590   -3.7950   -1.0240 c2        1 7TR     -0.075000
     26 CBN        -3.1880   -2.6020    1.3850 c2        1 7TR      0.157000
     27 CAS        -4.3870   -3.3350    1.3970 c2        1 7TR     -0.191000
     28 CAJ        -4.4320   -4.5960    2.0060 c1        1 7TR     -0.053000
     29 CBG        -3.2790   -5.1290    2.6050 c1        1 7TR     -0.062000
     30 CAI        -3.3240   -6.5390    3.2640 c1        1 7TR     -0.085000
     31 NAE        -3.3560   -7.5840    3.7530 n1        1 7TR     -0.053000
     32 CAV        -2.0800   -4.3960    2.5940 c1        1 7TR     -0.040000
     33 CBK        -2.0370   -3.1300    1.9820 c1        1 7TR     -0.166000
     34 CAZ        -1.0810   -1.9930    2.4450 c2        1 7TR      0.041000
     35 NBR        -0.2570   -1.5670    1.3840 n3        1 7TR     -0.820000
     36 SBT         1.2170   -2.2670    0.9840 s4        1 7TR      2.066800
     37 OAG         1.0400   -3.6100    0.4610 o         1 7TR     -0.536400
     38 OAH         1.8160   -1.6060   -0.1430 o         1 7TR     -0.536400
     39 CBL         2.3300   -2.2640    2.4190 c1        1 7TR     -0.869000
     40 CAQ         1.9090   -2.8300    3.6260 c2        1 7TR      0.012000
     41 CAO         2.8090   -2.9640    4.6890 c1        1 7TR     -0.185000
     42 CBI         4.1310   -2.5310    4.5460 c1        1 7TR      0.145000
     43 OBD         5.0590   -2.7140    5.6130 os        1 7TR     -0.202000
     44 CAC         5.2290   -1.5680    6.4290 c3        1 7TR     -0.080000
     45 CAP         4.5530   -1.9670    3.3450 c1        1 7TR     -0.235000
     46 CAR         3.6490   -1.8320    2.2760 c1        1 7TR      0.021000
     47 H1          1.6960    7.4970   -5.3170 hc        1 7TR      0.085333
     48 H2          2.5760    8.8400   -5.3280 hc        1 7TR      0.085333
     49 H3          3.1740    7.4710   -5.8960 hc        1 7TR      0.085333
     50 H4          4.0750    7.7730   -3.8070 h1        1 7TR      0.102250
     51 H5          2.6210    8.0040   -3.1790 h1        1 7TR      0.102250
     52 H6          4.7380    5.5550   -4.5710 h1        1 7TR      0.102250
     53 H7          4.0650    4.3170   -3.7910 h1        1 7TR      0.102250
     54 H8          3.7100    3.9150   -6.0520 hc        1 7TR      0.085333
     55 H9          2.2970    4.3830   -5.4690 hc        1 7TR      0.085333
     56 H10         3.1930    5.4060   -6.2860 hc        1 7TR      0.085333
     57 H11         2.0660    2.2160   -2.3830 ha        1 7TR      0.150000
     58 H12         1.4390    0.6590   -0.7040 ha        1 7TR      0.143000
     59 H13        -0.5440    4.9690   -0.8100 ha        1 7TR      0.149000
     60 H14        -1.1680    3.4050    0.8700 ha        1 7TR      0.149000
     61 H15         0.4680    0.6470    1.9090 hc        1 7TR      0.099000
     62 H16        -1.0270    1.2440    1.9110 hc        1 7TR      0.099000
     63 H17        -0.5660   -0.4570   -0.2240 h1        1 7TR      0.121000
     64 H18        -2.6080   -0.3710    1.7200 h1        1 7TR      0.102000
     65 H19        -2.6980    0.2460    0.2350 h1        1 7TR      0.102000
     66 H20        -4.8730   -1.6020    0.0100 h1        1 7TR      0.093000
     67 H21        -4.0510   -0.5560   -0.8750 h1        1 7TR      0.093000
     68 H22        -2.5360   -1.7800   -2.9490 DU        1 7TR      0.200000
     69 H23        -5.2260   -4.7380   -3.5420 DU        1 7TR      0.200000
     70 H24        -6.9270   -3.5900   -1.4540 ha        1 7TR      0.090667
     71 H25        -6.0110   -4.7600   -0.8220 ha        1 7TR      0.090667
     72 H26        -5.9750   -3.2780   -0.1880 ha        1 7TR      0.090667
     73 H27        -5.2060   -2.9580    0.9720 ha        1 7TR      0.134000
     74 H28        -5.2660   -5.1100    2.0060 ha        1 7TR      0.141000
     75 H29        -1.2550   -4.7750    3.0220 ha        1 7TR      0.144000
     76 H30        -1.6110   -1.2380    2.7620 h4        1 7TR      0.095000
     77 H31        -0.5200   -2.3210    3.1760 h4        1 7TR      0.095000
     78 H32         0.9780   -3.1370    3.7280 ha        1 7TR      0.152000
     79 H33         2.5110   -3.3630    5.5400 ha        1 7TR      0.159000
     80 H34         5.5670   -1.8400    7.3080 h1        1 7TR      0.090667
     81 H35         5.8650   -0.9620    6.0090 h1        1 7TR      0.090667
     82 H36         4.3710   -1.1160    6.5360 h1        1 7TR      0.090667
     83 H37         5.4890   -1.6620    3.2430 ha        1 7TR      0.147000
     84 H38         3.9480   -1.4320    1.4230 ha        1 7TR      0.154000
@<TRIPOS>BOND
     1    1    2 1   
     2    1   47 1   
     3    1   48 1   
     4    1   49 1   
     5    2    3 1   
     6    2   50 1   
     7    2   51 1   
     8    3    4 1   
     9    3    6 1   
    10    4    5 1   
    11    4   52 1   
    12    4   53 1   
    13    5   54 1   
    14    5   55 1   
    15    5   56 1   
    16    6    7 1   
    17    8    9 1   
    18    9   10 1   
    19   10   57 1   
    20   11   14 1   
    21   11   58 1   
    22   12   13 1   
    23   12   59 1   
    24   13   60 1   
    25   14   15 1   
    26   15   16 1   
    27   15   61 1   
    28   15   62 1   
    29   16   17 1   
    30   16   35 1   
    31   16   63 1   
    32   17   18 1   
    33   17   64 1   
    34   17   65 1   
    35   18   19 1   
    36   18   26 1   
    37   19   20 1   
    38   19   66 1   
    39   19   67 1   
    40   20   21 1   
    41   20   24 1   
    42   21   22 1   
    43   22   23 1   
    44   23   24 1   
    45   25   70 1   
    46   25   71 1   
    47   25   72 1   
    48   26   27 1   
    49   26   33 1   
    50   27   28 1   
    51   27   73 1   
    52   28   74 1   
    53   29   30 1   
    54   29   32 1   
    55   30   31 1   
    56   32   75 1   
    57   34   35 1   
    58   34   76 1   
    59   34   77 1   
    60   35   36 1   
    61   36   37 1   
    62   36   38 1   
    63   39   40 1   
    64   39   46 1   
    65   40   41 1   
    66   40   78 1   
    67   41   79 1   
    68   42   43 1   
    69   42   45 1   
    70   43   44 1   
    71   44   80 1   
    72   44   81 1   
    73   44   82 1   
    74   45   83 1   
    75   46   84 1   
@<TRIPOS>SUBSTRUCTURE
     1 7TR         1 TEMP              0 ****  ****    0 ROOT
