@<TRIPOS>MOLECULE
7TR
   84    88     1     0     0
SMALL
bcc


@<TRIPOS>ATOM
      1 CAA        -7.7910    0.4280    0.4570 c3        1 7TR     -0.126100
      2 CAW        -7.7250   -1.0860    0.5800 c3        1 7TR      0.090000
      3 NBP        -7.3570   -1.8150   -0.6150 n         1 7TR     -0.431800
      4 CAX        -8.4060   -2.2800   -1.5010 c3        1 7TR      0.090000
      5 CAB        -9.2040   -1.2100   -2.2270 c3        1 7TR     -0.126100
      6 CBF        -6.0820   -1.6780   -1.1480 c         1 7TR      0.738100
      7 OAF        -5.6600   -2.1290   -2.2230 o         1 7TR     -0.573000
      8 OBE        -5.2030   -0.9940   -0.3090 os        1 7TR     -0.365200
      9 CBJ        -3.8400   -1.0530   -0.5970 ca        1 7TR      0.117100
     10 CAN        -3.0030   -1.3570    0.4880 ca        1 7TR     -0.123500
     11 CAL        -1.6250   -1.3040    0.3070 ca        1 7TR     -0.117000
     12 CAM        -3.3150   -0.7150   -1.8480 ca        1 7TR     -0.123500
     13 CAK        -1.9310   -0.6740   -2.0080 ca        1 7TR     -0.117000
     14 CBH        -1.0770   -0.9600   -0.9370 ca        1 7TR     -0.094300
     15 CAY         0.3980   -0.9450   -1.1280 c3        1 7TR     -0.051100
     16 CBO         1.0760    0.1530   -0.2830 c3        1 7TR      0.202500
     17 CBB         0.5680    1.5350   -0.7750 c3        1 7TR      0.182800
     18 NBQ         1.2150    2.7040   -0.2340 nh        1 7TR     -0.655000
     19 CBA         1.0860    2.8890    1.2090 c3        1 7TR      0.255100
     20 CBM        -0.3160    3.0510    1.6750 cc        1 7TR     -0.228900
     21 CAT        -0.9370    2.4140    2.7720 cd        1 7TR      0.302200
     22 NBC        -2.2370    2.8810    2.9260 nd        1 7TR     -0.668000
     23 CAU        -2.4210    3.7880    1.9410 cc        1 7TR      0.384400
     24 NBS        -1.2720    3.9340    1.1510 na        1 7TR     -0.188900
     25 CAD        -1.1330    4.7770    0.0110 c3        1 7TR      0.030600
     26 CBN         2.4820    3.0610   -0.7640 ca        1 7TR      0.169600
     27 CAS         2.8230    4.4390   -0.7500 ca        1 7TR     -0.155000
     28 CAJ         3.9960    4.8990   -1.3260 ca        1 7TR     -0.073000
     29 CBG         4.8770    3.9950   -1.9370 ca        1 7TR     -0.039000
     30 CAI         6.0740    4.4620   -2.5430 cg        1 7TR      0.237800
     31 NAE         7.0530    4.8460   -3.0400 n1        1 7TR     -0.366800
     32 CAV         4.5720    2.6320   -1.9380 ca        1 7TR     -0.060000
     33 CBK         3.3940    2.1540   -1.3520 ca        1 7TR     -0.151300
     34 CAZ         3.1850    0.6620   -1.4140 c3        1 7TR      0.276100
     35 NBR         2.5200    0.0700   -0.2870 n3        1 7TR     -0.805500
     36 SBT         3.3450   -0.5450    0.9900 sy        1 7TR      1.512200
     37 OAG         4.7280   -0.3160    0.8130 o         1 7TR     -0.653800
     38 OAH         2.7630   -0.0590    2.1840 o         1 7TR     -0.653800
     39 CBL         3.0620   -2.1960    0.8890 ca        1 7TR     -0.427500
     40 CAQ         1.9620   -2.7840    1.5360 ca        1 7TR      0.019000
     41 CAO         1.7470   -4.1510    1.4990 ca        1 7TR     -0.210500
     42 CBI         2.6570   -4.9690    0.7950 ca        1 7TR      0.194100
     43 OBD         2.3620   -6.3100    0.8100 os        1 7TR     -0.316900
     44 CAC         3.2680   -7.1710    0.1240 c3        1 7TR      0.109700
     45 CAP         3.7660   -4.4050    0.1460 ca        1 7TR     -0.210500
     46 CAR         3.9540   -3.0290    0.2030 ca        1 7TR      0.019000
     47 H1         -8.5400    0.7450   -0.3080 hc        1 7TR      0.046033
     48 H2         -8.0860    0.8560    1.4450 hc        1 7TR      0.046033
     49 H3         -6.7930    0.8420    0.1730 hc        1 7TR      0.046033
     50 H4         -6.9640   -1.3450    1.3740 h1        1 7TR      0.062950
     51 H5         -8.7290   -1.4750    0.9120 h1        1 7TR      0.062950
     52 H6         -7.9330   -2.9630   -2.2660 h1        1 7TR      0.062950
     53 H7         -9.1100   -2.8960   -0.8690 h1        1 7TR      0.062950
     54 H8         -9.9290   -1.7090   -2.9140 hc        1 7TR      0.046033
     55 H9         -9.7750   -0.5750   -1.5090 hc        1 7TR      0.046033
     56 H10        -8.5370   -0.5510   -2.8330 hc        1 7TR      0.046033
     57 H11        -3.4380   -1.6170    1.4630 ha        1 7TR      0.156500
     58 H12        -0.9580   -1.5410    1.1510 ha        1 7TR      0.133500
     59 H13        -3.9880   -0.5130   -2.6940 ha        1 7TR      0.156500
     60 H14        -1.5100   -0.4150   -2.9910 ha        1 7TR      0.133500
     61 H15         0.8110   -1.9460   -0.8260 hc        1 7TR      0.058200
     62 H16         0.6480   -0.7930   -2.2110 hc        1 7TR      0.058200
     63 H17         0.7360    0.0200    0.7920 h1        1 7TR      0.071700
     64 H18         0.6540    1.5790   -1.8970 h1        1 7TR      0.070700
     65 H19        -0.5240    1.5990   -0.4980 h1        1 7TR      0.070700
     66 H20         1.5270    2.0130    1.7760 h1        1 7TR      0.072200
     67 H21         1.6690    3.8140    1.4960 h1        1 7TR      0.072200
     68 H22        -0.5080    1.6680    3.4410 h4        1 7TR      0.047100
     69 H23        -3.3370    4.3580    1.7580 h5        1 7TR      0.058100
     70 H24        -1.2150    4.1710   -0.9330 h1        1 7TR      0.054033
     71 H25        -1.9380    5.5580    0.0210 h1        1 7TR      0.054033
     72 H26        -0.1270    5.2770    0.0270 h1        1 7TR      0.054033
     73 H27         2.1390    5.1660   -0.2820 ha        1 7TR      0.142000
     74 H28         4.2350    5.9730   -1.3070 ha        1 7TR      0.146000
     75 H29         5.2790    1.9190   -2.3930 ha        1 7TR      0.147000
     76 H30         2.6010    0.4330   -2.3550 h1        1 7TR      0.064200
     77 H31         4.1980    0.1660   -1.5150 h1        1 7TR      0.064200
     78 H32         1.2640   -2.1380    2.0990 ha        1 7TR      0.153000
     79 H33         0.8880   -4.6120    2.0080 ha        1 7TR      0.154500
     80 H34         2.8250   -8.1870    0.2830 h1        1 7TR      0.052367
     81 H35         3.3000   -6.9190   -0.9640 h1        1 7TR      0.052367
     82 H36         4.2870   -7.1080    0.5760 h1        1 7TR      0.052367
     83 H37         4.4840   -5.0340   -0.3980 ha        1 7TR      0.154500
     84 H38         4.8370   -2.5820   -0.2880 ha        1 7TR      0.153000
@<TRIPOS>BOND
     1    1    2 1   
     2    1   47 1   
     3    1   48 1   
     4    1   49 1   
     5    2    3 1   
     6    2   50 1   
     7    2   51 1   
     8    3    4 1   
     9    3    6 1   
    10    4    5 1   
    11    4   52 1   
    12    4   53 1   
    13    5   54 1   
    14    5   55 1   
    15    5   56 1   
    16    6    7 2   
    17    6    8 1   
    18    8    9 1   
    19    9   10 ar  
    20    9   12 ar  
    21   10   11 ar  
    22   10   57 1   
    23   11   14 ar  
    24   11   58 1   
    25   12   13 ar  
    26   12   59 1   
    27   13   14 ar  
    28   13   60 1   
    29   14   15 1   
    30   15   16 1   
    31   15   61 1   
    32   15   62 1   
    33   16   17 1   
    34   16   35 1   
    35   16   63 1   
    36   17   18 1   
    37   17   64 1   
    38   17   65 1   
    39   18   19 1   
    40   18   26 1   
    41   19   20 1   
    42   19   66 1   
    43   19   67 1   
    44   20   21 2   
    45   20   24 1   
    46   21   22 1   
    47   21   68 1   
    48   22   23 2   
    49   23   24 1   
    50   23   69 1   
    51   24   25 1   
    52   25   70 1   
    53   25   71 1   
    54   25   72 1   
    55   26   27 ar  
    56   26   33 ar  
    57   27   28 ar  
    58   27   73 1   
    59   28   29 ar  
    60   28   74 1   
    61   29   30 1   
    62   29   32 ar  
    63   30   31 3   
    64   32   33 ar  
    65   32   75 1   
    66   33   34 1   
    67   34   35 1   
    68   34   76 1   
    69   34   77 1   
    70   35   36 1   
    71   36   37 2   
    72   36   38 2   
    73   36   39 1   
    74   39   40 ar  
    75   39   46 ar  
    76   40   41 ar  
    77   40   78 1   
    78   41   42 ar  
    79   41   79 1   
    80   42   43 1   
    81   42   45 ar  
    82   43   44 1   
    83   44   80 1   
    84   44   81 1   
    85   44   82 1   
    86   45   46 ar  
    87   45   83 1   
    88   46   84 1   
@<TRIPOS>SUBSTRUCTURE
     1 7TR         1 TEMP              0 ****  ****    0 ROOT
