@<TRIPOS>MOLECULE
7TR
   85    89     1     0     0
SMALL
bcc


@<TRIPOS>ATOM
      1 CAA        -0.1330   -0.9770   -1.5540 c3        1 7TR     -0.133100
      2 CAW         1.0380   -1.4330   -0.7130 c3        1 7TR      0.110800
      3 NBP         1.2990   -0.5420    0.4730 nx        1 7TR     -0.567200
      4 CAX         1.9670    0.7440    0.0770 c3        1 7TR      0.110800
      5 CAB         1.9750    1.7690    1.1910 c3        1 7TR     -0.133100
      6 CBF         2.1620   -1.2800    1.4600 c         1 7TR      0.625100
      7 OAF         3.2560   -1.7310    1.1680 o         1 7TR     -0.399000
      8 OBE         1.5920   -1.2680    2.6970 os        1 7TR     -0.322200
      9 CBJ         1.8080   -2.4150    3.4970 ca        1 7TR      0.046100
     10 CAN         3.0910   -2.8970    3.7700 ca        1 7TR     -0.110000
     11 CAL         3.2080   -4.0470    4.5480 ca        1 7TR     -0.110000
     12 CAM         0.6520   -2.9940    4.0320 ca        1 7TR     -0.110000
     13 CAK         0.7950   -4.1340    4.8200 ca        1 7TR     -0.110000
     14 CBH         2.0610   -4.6900    5.0390 ca        1 7TR     -0.054300
     15 CAY         2.2080   -6.0150    5.7050 c3        1 7TR     -0.058100
     16 CBO         2.4010   -7.0910    4.6090 c3        1 7TR      0.196500
     17 CBB         1.0130   -7.6620    4.2230 c3        1 7TR      0.179800
     18 NBQ         1.0010   -8.6650    3.1850 nh        1 7TR     -0.645000
     19 CBA         1.5440   -8.2350    1.8970 c3        1 7TR      0.243100
     20 CBM         0.8590   -7.0350    1.3430 cc        1 7TR     -0.206900
     21 CAT         1.4230   -5.7930    0.9700 cd        1 7TR      0.293200
     22 NBC         0.4370   -4.9500    0.4710 nd        1 7TR     -0.732000
     23 CAU        -0.7160   -5.6570    0.5300 cc        1 7TR      0.384400
     24 NBS        -0.5080   -6.9380    1.0520 na        1 7TR     -0.174900
     25 CAD        -1.5040   -7.9360    1.2720 c3        1 7TR      0.021600
     26 CBN         1.3730   -9.9880    3.5580 ca        1 7TR      0.159600
     27 CAS         0.8270  -11.0480    2.7920 ca        1 7TR     -0.149000
     28 CAJ         1.0600  -12.3740    3.1240 ca        1 7TR     -0.071000
     29 CBG         1.8500  -12.6870    4.2390 ca        1 7TR     -0.026000
     30 CAI         2.0920  -14.0420    4.5900 cg        1 7TR      0.225800
     31 NAE         2.2920  -15.1510    4.8760 n1        1 7TR     -0.345800
     32 CAV         2.4060  -11.6550    4.9990 ca        1 7TR     -0.072000
     33 CBK         2.1900  -10.3130    4.6670 ca        1 7TR     -0.152300
     34 CAZ         2.8450   -9.2960    5.5690 c3        1 7TR      0.281100
     35 NBR         3.3600   -8.1210    4.9360 n3        1 7TR     -0.800500
     36 SBT         4.8910   -7.8740    4.3650 sy        1 7TR      1.523200
     37 OAG         4.8910   -8.0680    2.9660 o         1 7TR     -0.669800
     38 OAH         5.2960   -6.5790    4.7700 o         1 7TR     -0.669800
     39 CBL         5.8090   -9.0340    5.1140 ca        1 7TR     -0.459500
     40 CAQ         6.3190   -8.8230    6.4090 ca        1 7TR      0.026500
     41 CAO         7.1380   -9.7510    7.0240 ca        1 7TR     -0.214000
     42 CBI         7.4760  -10.9360    6.3310 ca        1 7TR      0.211100
     43 OBD         8.2860  -11.7980    7.0200 os        1 7TR     -0.310900
     44 CAC         8.6710  -12.9980    6.3500 c3        1 7TR      0.106700
     45 CAP         6.9900  -11.1630    5.0330 ca        1 7TR     -0.214000
     46 CAR         6.1680  -10.2130    4.4430 ca        1 7TR      0.026500
     47 H1         -0.2870   -1.7420   -2.3580 hc        1 7TR      0.077533
     48 H2          0.0550    0.0090   -2.0440 hc        1 7TR      0.077533
     49 H3         -1.0750   -0.9100   -0.9550 hc        1 7TR      0.077533
     50 H4          1.9850   -1.4630   -1.3240 hx        1 7TR      0.118200
     51 H5          0.8390   -2.4740   -0.3160 hx        1 7TR      0.118200
     52 H6          1.4100    1.1470   -0.8180 hx        1 7TR      0.118200
     53 H7          3.0220    0.4920   -0.2370 hx        1 7TR      0.118200
     54 H8          2.5590    2.6580    0.8410 hc        1 7TR      0.077533
     55 H9          0.9410    2.1070    1.4470 hc        1 7TR      0.077533
     56 H10         2.4620    1.3690    2.1150 hc        1 7TR      0.077533
     57 H11         3.9840   -2.4050    3.3550 ha        1 7TR      0.159000
     58 H12         4.2070   -4.4790    4.7520 ha        1 7TR      0.174000
     59 H13        -0.3390   -2.5620    3.8320 ha        1 7TR      0.159000
     60 H14        -0.1000   -4.6130    5.2480 ha        1 7TR      0.174000
     61 H15         1.3100   -6.2560    6.3290 hc        1 7TR      0.073700
     62 H16         3.1000   -5.9890    6.3890 hc        1 7TR      0.073700
     63 H17         2.8110   -6.5560    3.6890 h1        1 7TR      0.060700
     64 H18         0.3930   -6.7930    3.8600 h1        1 7TR      0.067700
     65 H19         0.5120   -8.0940    5.1350 h1        1 7TR      0.067700
     66 H20         2.6500   -7.9980    1.9660 h1        1 7TR      0.079200
     67 H21         1.4250   -9.0920    1.1700 h1        1 7TR      0.079200
     68 H22         2.4710   -5.4980    1.0270 h4        1 7TR      0.048100
     69 H23        -1.7020   -5.3100    0.2050 h5        1 7TR      0.059100
     70 H24        -1.8530   -7.9060    2.3410 h1        1 7TR      0.063367
     71 H25        -1.0700   -8.9530    1.0680 h1        1 7TR      0.063367
     72 H26        -2.3770   -7.7560    0.5910 h1        1 7TR      0.063367
     73 H27         0.1910  -10.8230    1.9200 ha        1 7TR      0.142000
     74 H28         0.6220  -13.1800    2.5140 ha        1 7TR      0.153000
     75 H29         3.0310  -11.9050    5.8720 ha        1 7TR      0.148000
     76 H30         2.0880   -8.9950    6.3550 h1        1 7TR      0.064200
     77 H31         3.7000   -9.7980    6.1160 h1        1 7TR      0.064200
     78 H32         6.0710   -7.8840    6.9360 ha        1 7TR      0.157500
     79 H33         7.5390   -9.5850    8.0350 ha        1 7TR      0.161500
     80 H34         7.7720  -13.6180    6.1120 h1        1 7TR      0.058033
     81 H35         9.2480  -12.7610    5.4230 h1        1 7TR      0.058033
     82 H36         9.3210  -13.5120    7.1040 h1        1 7TR      0.058033
     83 H37         7.2560  -12.0760    4.4810 ha        1 7TR      0.161500
     84 H38         5.7980  -10.3780    3.4140 ha        1 7TR      0.157500
     85 HBP1        0.4040   -0.3220    0.9320 hn        1 7TR      0.462800
@<TRIPOS>BOND
     1    1    2 1   
     2    1   47 1   
     3    1   48 1   
     4    1   49 1   
     5    2    3 1   
     6    2   50 1   
     7    2   51 1   
     8    3    4 1   
     9    3    6 1   
    10    3   85 1   
    11    4    5 1   
    12    4   52 1   
    13    4   53 1   
    14    5   54 1   
    15    5   55 1   
    16    5   56 1   
    17    6    7 2   
    18    6    8 1   
    19    8    9 1   
    20    9   10 ar  
    21    9   12 ar  
    22   10   11 ar  
    23   10   57 1   
    24   11   14 ar  
    25   11   58 1   
    26   12   13 ar  
    27   12   59 1   
    28   13   14 ar  
    29   13   60 1   
    30   14   15 1   
    31   15   16 1   
    32   15   61 1   
    33   15   62 1   
    34   16   17 1   
    35   16   35 1   
    36   16   63 1   
    37   17   18 1   
    38   17   64 1   
    39   17   65 1   
    40   18   19 1   
    41   18   26 1   
    42   19   20 1   
    43   19   66 1   
    44   19   67 1   
    45   20   21 2   
    46   20   24 1   
    47   21   22 1   
    48   21   68 1   
    49   22   23 2   
    50   23   24 1   
    51   23   69 1   
    52   24   25 1   
    53   25   70 1   
    54   25   71 1   
    55   25   72 1   
    56   26   27 ar  
    57   26   33 ar  
    58   27   28 ar  
    59   27   73 1   
    60   28   29 ar  
    61   28   74 1   
    62   29   30 1   
    63   29   32 ar  
    64   30   31 3   
    65   32   33 ar  
    66   32   75 1   
    67   33   34 1   
    68   34   35 1   
    69   34   76 1   
    70   34   77 1   
    71   35   36 1   
    72   36   37 2   
    73   36   38 2   
    74   36   39 1   
    75   39   40 ar  
    76   39   46 ar  
    77   40   41 ar  
    78   40   78 1   
    79   41   42 ar  
    80   41   79 1   
    81   42   43 1   
    82   42   45 ar  
    83   43   44 1   
    84   44   80 1   
    85   44   81 1   
    86   44   82 1   
    87   45   46 ar  
    88   45   83 1   
    89   46   84 1   
@<TRIPOS>SUBSTRUCTURE
     1 7TR         1 TEMP              0 ****  ****    0 ROOT
