@<TRIPOS>MOLECULE
7TR
   85    89     1     0     0
SMALL
bcc


@<TRIPOS>ATOM
      1 CAA        -0.0950   -0.9990   -1.6040 c3        1 7TR     -0.133100
      2 CAW         1.0670   -1.4510   -0.7490 c3        1 7TR      0.110800
      3 NBP         1.3180   -0.5540    0.4340 n4        1 7TR     -0.567200
      4 CAX         1.9900    0.7290    0.0370 c3        1 7TR      0.110800
      5 CAB         1.9880    1.7610    1.1450 c3        1 7TR     -0.133100
      6 CBF         2.1690   -1.2870    1.4350 c         1 7TR      0.625100
      7 OAF         3.2680   -1.7370    1.1580 o         1 7TR     -0.399000
      8 OBE         1.5840   -1.2720    2.6640 os        1 7TR     -0.322200
      9 CBJ         1.7930   -2.4150    3.4720 ca        1 7TR      0.046100
     10 CAN         3.0730   -2.8920    3.7630 ca        1 7TR     -0.110000
     11 CAL         3.1830   -4.0390    4.5460 ca        1 7TR     -0.110000
     12 CAM         0.6310   -2.9950    3.9940 ca        1 7TR     -0.110000
     13 CAK         0.7670   -4.1320    4.7880 ca        1 7TR     -0.110000
     14 CBH         2.0320   -4.6830    5.0250 ca        1 7TR     -0.054300
     15 CAY         2.1740   -6.0050    5.6990 c3        1 7TR     -0.058100
     16 CBO         2.3830   -7.0850    4.6090 c3        1 7TR      0.196500
     17 CBB         1.0020   -7.6620    4.2080 c3        1 7TR      0.179800
     18 NBQ         1.0070   -8.6690    3.1740 nh        1 7TR     -0.645000
     19 CBA         1.5640   -8.2420    1.8910 c3        1 7TR      0.243100
     20 CBM         0.8820   -7.0470    1.3240 cc        1 7TR     -0.206900
     21 CAT         1.4470   -5.8050    0.9530 cd        1 7TR      0.293200
     22 NBC         0.4650   -4.9670    0.4380 nd        1 7TR     -0.732000
     23 CAU        -0.6870   -5.6780    0.4850 cc        1 7TR      0.384400
     24 NBS        -0.4820   -6.9560    1.0160 na        1 7TR     -0.174900
     25 CAD        -1.4770   -7.9570    1.2270 c3        1 7TR      0.021600
     26 CBN         1.3780   -9.9890    3.5570 ca        1 7TR      0.159600
     27 CAS         0.8440  -11.0550    2.7880 ca        1 7TR     -0.149000
     28 CAJ         1.0780  -12.3780    3.1280 ca        1 7TR     -0.071000
     29 CBG         1.8540  -12.6840    4.2550 ca        1 7TR     -0.026000
     30 CAI         2.0950  -14.0370    4.6140 cg        1 7TR      0.225800
     31 NAE         2.2950  -15.1450    4.9070 n1        1 7TR     -0.345800
     32 CAV         2.3970  -11.6480    5.0170 ca        1 7TR     -0.072000
     33 CBK         2.1810  -10.3070    4.6770 ca        1 7TR     -0.152300
     34 CAZ         2.8210   -9.2850    5.5840 c3        1 7TR      0.281100
     35 NBR         3.3410   -8.1110    4.9520 n3        1 7TR     -0.800500
     36 SBT         4.8790   -7.8630    4.4010 sy        1 7TR      1.523200
     37 OAG         4.8980   -8.0630    3.0030 o         1 7TR     -0.669800
     38 OAH         5.2740   -6.5640    4.8050 o         1 7TR     -0.669800
     39 CBL         5.7900   -9.0160    5.1670 ca        1 7TR     -0.459500
     40 CAQ         6.2830   -8.7980    6.4670 ca        1 7TR      0.026500
     41 CAO         7.0960   -9.7210    7.0970 ca        1 7TR     -0.214000
     42 CBI         7.4470  -10.9080    6.4140 ca        1 7TR      0.211100
     43 OBD         8.2500  -11.7630    7.1170 os        1 7TR     -0.310900
     44 CAC         8.6480  -12.9660    6.4570 c3        1 7TR      0.106700
     45 CAP         6.9790  -11.1420    5.1100 ca        1 7TR     -0.214000
     46 CAR         6.1620  -10.1960    4.5050 ca        1 7TR      0.026500
     47 H1         -1.0420   -0.9290   -1.0160 hc        1 7TR      0.077533
     48 H2         -0.2410   -1.7690   -2.4060 hc        1 7TR      0.077533
     49 H3          0.1000   -0.0170   -2.0980 hc        1 7TR      0.077533
     50 H4          2.0210   -1.4860   -1.3500 hx        1 7TR      0.118200
     51 H5          0.8630   -2.4910   -0.3480 hx        1 7TR      0.118200
     52 H6          3.0490    0.4740   -0.2640 hx        1 7TR      0.118200
     53 H7          1.4430    1.1270   -0.8650 hx        1 7TR      0.118200
     54 H8          2.5760    2.6470    0.7950 hc        1 7TR      0.077533
     55 H9          0.9530    2.1010    1.3890 hc        1 7TR      0.077533
     56 H10         2.4670    1.3660    2.0760 hc        1 7TR      0.077533
     57 H11         3.9700   -2.4000    3.3570 ha        1 7TR      0.159000
     58 H12         4.1810   -4.4680    4.7650 ha        1 7TR      0.174000
     59 H13        -0.3580   -2.5660    3.7790 ha        1 7TR      0.159000
     60 H14        -0.1320   -4.6110    5.2060 ha        1 7TR      0.174000
     61 H15         1.2680   -6.2470    6.3120 hc        1 7TR      0.073700
     62 H16         3.0560   -5.9740    6.3940 hc        1 7TR      0.073700
     63 H17         2.8040   -6.5530    3.6920 h1        1 7TR      0.060700
     64 H18         0.4910   -8.0920    5.1150 h1        1 7TR      0.067700
     65 H19         0.3850   -6.7960    3.8330 h1        1 7TR      0.067700
     66 H20         1.4570   -9.1030    1.1660 h1        1 7TR      0.079200
     67 H21         2.6690   -8.0020    1.9720 h1        1 7TR      0.079200
     68 H22         2.4930   -5.5060    1.0220 h4        1 7TR      0.048100
     69 H23        -1.6700   -5.3350    0.1470 h5        1 7TR      0.059100
     70 H24        -2.3420   -7.7820    0.5340 h1        1 7TR      0.063367
     71 H25        -1.8380   -7.9230    2.2910 h1        1 7TR      0.063367
     72 H26        -1.0380   -8.9720    1.0320 h1        1 7TR      0.063367
     73 H27         0.2190  -10.8350    1.9070 ha        1 7TR      0.142000
     74 H28         0.6490  -13.1880    2.5170 ha        1 7TR      0.153000
     75 H29         3.0110  -11.8920    5.9000 ha        1 7TR      0.148000
     76 H30         3.6710   -9.7830    6.1440 h1        1 7TR      0.064200
     77 H31         2.0530   -8.9840    6.3590 h1        1 7TR      0.064200
     78 H32         6.0250   -7.8570    6.9860 ha        1 7TR      0.157500
     79 H33         7.4830   -9.5490    8.1130 ha        1 7TR      0.161500
     80 H34         7.7550  -13.5890    6.2110 h1        1 7TR      0.058033
     81 H35         9.2360  -12.7310    5.5380 h1        1 7TR      0.058033
     82 H36         9.2890  -13.4740    7.2220 h1        1 7TR      0.058033
     83 H37         7.2560  -12.0560    4.5660 ha        1 7TR      0.161500
     84 H38         5.8060  -10.3670    3.4720 ha        1 7TR      0.157500
     85 HBP1        0.4180   -0.3300    0.8830 hn        1 7TR      0.462800
@<TRIPOS>BOND
     1    1    2 1   
     2    1   47 1   
     3    1   48 1   
     4    1   49 1   
     5    2    3 1   
     6    2   50 1   
     7    2   51 1   
     8    3    4 1   
     9    3    6 1   
    10    3   85 1   
    11    4    5 1   
    12    4   52 1   
    13    4   53 1   
    14    5   54 1   
    15    5   55 1   
    16    5   56 1   
    17    6    7 2   
    18    6    8 1   
    19    8    9 1   
    20    9   10 ar  
    21    9   12 ar  
    22   10   11 ar  
    23   10   57 1   
    24   11   14 ar  
    25   11   58 1   
    26   12   13 ar  
    27   12   59 1   
    28   13   14 ar  
    29   13   60 1   
    30   14   15 1   
    31   15   16 1   
    32   15   61 1   
    33   15   62 1   
    34   16   17 1   
    35   16   35 1   
    36   16   63 1   
    37   17   18 1   
    38   17   64 1   
    39   17   65 1   
    40   18   19 1   
    41   18   26 1   
    42   19   20 1   
    43   19   66 1   
    44   19   67 1   
    45   20   21 2   
    46   20   24 1   
    47   21   22 1   
    48   21   68 1   
    49   22   23 2   
    50   23   24 1   
    51   23   69 1   
    52   24   25 1   
    53   25   70 1   
    54   25   71 1   
    55   25   72 1   
    56   26   27 ar  
    57   26   33 ar  
    58   27   28 ar  
    59   27   73 1   
    60   28   29 ar  
    61   28   74 1   
    62   29   30 1   
    63   29   32 ar  
    64   30   31 3   
    65   32   33 ar  
    66   32   75 1   
    67   33   34 1   
    68   34   35 1   
    69   34   76 1   
    70   34   77 1   
    71   35   36 1   
    72   36   37 2   
    73   36   38 2   
    74   36   39 1   
    75   39   40 ar  
    76   39   46 ar  
    77   40   41 ar  
    78   40   78 1   
    79   41   42 ar  
    80   41   79 1   
    81   42   43 1   
    82   42   45 ar  
    83   43   44 1   
    84   44   80 1   
    85   44   81 1   
    86   44   82 1   
    87   45   46 ar  
    88   45   83 1   
    89   46   84 1   
@<TRIPOS>SUBSTRUCTURE
     1 7TR         1 TEMP              0 ****  ****    0 ROOT
