@<TRIPOS>MOLECULE
7UP
   44    47     1     0     0
SMALL
bcc


@<TRIPOS>ATOM
      1 N2          8.0310   -1.2690   -0.7250 nh        1 7UP     -0.893800
      2 C1          7.3990   -0.3720    0.1630 ce        1 7UP      0.637800
      3 N1          8.0840    0.3770    0.9760 n2        1 7UP     -0.834100
      4 C2          5.9020   -0.4200    0.1250 ca        1 7UP     -0.190900
      5 C11         5.1820    0.7510    0.0290 ca        1 7UP     -0.098000
      6 C10         3.7620    0.7220    0.0080 ca        1 7UP     -0.038000
      7 C5          3.0920   -0.5260    0.0930 ca        1 7UP     -0.031000
      8 C4          3.8610   -1.7180    0.1970 ca        1 7UP     -0.119000
      9 C3          5.2330   -1.6680    0.2100 ca        1 7UP     -0.102000
     10 C9          2.9930    1.9140   -0.0960 ca        1 7UP     -0.117000
     11 C8          1.6240    1.8650   -0.1140 ca        1 7UP     -0.107000
     12 C7          0.9440    0.6140   -0.0280 ca        1 7UP      0.038000
     13 C6          1.6730   -0.5580    0.0730 ca        1 7UP     -0.098000
     14 C12        -0.4610    0.5920   -0.0490 cg        1 7UP     -0.114000
     15 C13        -1.6610    0.5750   -0.0660 ch        1 7UP     -0.089000
     16 C14        -3.0670    0.5560   -0.0870 ca        1 7UP      0.019000
     17 C22        -3.7600   -0.6590    0.0200 ca        1 7UP     -0.103000
     18 C21        -5.1570   -0.6820    0.0000 ca        1 7UP     -0.069300
     19 C17        -5.8720    0.5180   -0.1250 ca        1 7UP     -0.065300
     20 C16        -5.1800    1.7300   -0.2330 ca        1 7UP     -0.132000
     21 C15        -3.7900    1.7550   -0.2150 ca        1 7UP     -0.105000
     22 C20        -5.8780   -1.9790    0.0870 c3        1 7UP     -0.035100
     23 C19        -7.3270   -1.8000    0.5390 c3        1 7UP      0.165800
     24 N3         -8.0140   -0.7530   -0.1890 n3        1 7UP     -0.819200
     25 C18        -7.3710    0.5450   -0.1320 c3        1 7UP      0.205100
     26 H3          7.5440   -1.3770   -1.5860 hn        1 7UP      0.399300
     27 H1          9.0140   -1.1390   -0.8360 hn        1 7UP      0.399300
     28 H2          7.5280    0.8910    1.6240 hn        1 7UP      0.395400
     29 H9          5.6910    1.7260   -0.0360 ha        1 7UP      0.140000
     30 H5          3.3340   -2.6810    0.2670 ha        1 7UP      0.138000
     31 H4          5.8290   -2.5910    0.2950 ha        1 7UP      0.152000
     32 H8          3.5210    2.8770   -0.1610 ha        1 7UP      0.137000
     33 H7          1.0270    2.7860   -0.1940 ha        1 7UP      0.142000
     34 H6          1.1630   -1.5310    0.1400 ha        1 7UP      0.143000
     35 H19        -3.2000   -1.6010    0.1190 ha        1 7UP      0.139000
     36 H11        -5.7430    2.6700   -0.3340 ha        1 7UP      0.135000
     37 H10        -3.2530    2.7110   -0.3010 ha        1 7UP      0.139000
     38 H18        -5.8560   -2.4700   -0.9240 hc        1 7UP      0.059700
     39 H17        -5.3620   -2.6660    0.8090 hc        1 7UP      0.059700
     40 H16        -7.8860   -2.7600    0.3530 h1        1 7UP      0.031200
     41 H15        -7.3290   -1.6150    1.6540 h1        1 7UP      0.031200
     42 H14        -8.9600   -0.6750    0.1350 hn        1 7UP      0.365800
     43 H12        -7.6970    1.1390    0.7760 h1        1 7UP      0.042700
     44 H13        -7.7180    1.1130   -1.0450 h1        1 7UP      0.042700
@<TRIPOS>BOND
     1    1    2 1   
     2    1   26 1   
     3    1   27 1   
     4    2    3 2   
     5    2    4 1   
     6    3   28 1   
     7    4    5 ar  
     8    4    9 ar  
     9    5    6 ar  
    10    5   29 1   
    11    6    7 ar  
    12    6   10 ar  
    13    7    8 ar  
    14    7   13 ar  
    15    8    9 ar  
    16    8   30 1   
    17    9   31 1   
    18   10   11 ar  
    19   10   32 1   
    20   11   12 ar  
    21   11   33 1   
    22   12   13 ar  
    23   12   14 1   
    24   13   34 1   
    25   14   15 3   
    26   15   16 1   
    27   16   17 ar  
    28   16   21 ar  
    29   17   18 ar  
    30   17   35 1   
    31   18   19 ar  
    32   18   22 1   
    33   19   20 ar  
    34   19   25 1   
    35   20   21 ar  
    36   20   36 1   
    37   21   37 1   
    38   22   23 1   
    39   22   38 1   
    40   22   39 1   
    41   23   24 1   
    42   23   40 1   
    43   23   41 1   
    44   24   25 1   
    45   24   42 1   
    46   25   43 1   
    47   25   44 1   
@<TRIPOS>SUBSTRUCTURE
     1 7UP         1 TEMP              0 ****  ****    0 ROOT
