@<TRIPOS>MOLECULE
7UP
   44    37     1     0     0
SMALL
bcc


@<TRIPOS>ATOM
      1 N2         -5.2670   -2.3160    6.4780 n3        1 7UP     -0.399000
      2 C1         -4.6030   -1.1400    6.0580 c2        1 7UP      0.129000
      3 N1         -4.6670   -0.0280    6.8040 n1        1 7UP     -0.295000
      4 C2         -3.7960   -1.1410    4.7320 c1        1 7UP     -0.051000
      5 C11        -2.3740   -1.2670    4.9540 c1        1 7UP     -0.089500
      6 C10        -1.4990   -1.0690    3.9210 c1        1 7UP     -0.038000
      7 C5         -1.9780   -0.7430    2.6510 c1        1 7UP      0.003500
      8 C4         -3.3880   -0.6180    2.4290 c1        1 7UP     -0.112000
      9 C3         -4.2740   -0.8190    3.4740 c1        1 7UP     -0.122000
     10 C9         -0.1410   -1.1710    4.1410 c1        1 7UP     -0.089500
     11 C8          0.7230   -0.9560    3.1290 c1        1 7UP     -0.112000
     12 C7          0.2480   -0.6330    1.8690 c1        1 7UP      0.003500
     13 C6         -1.1160   -0.5300    1.6460 c2        1 7UP     -0.097000
     14 C12         0.9550   -0.3010    0.5480 c1        1 7UP     -0.105500
     15 C13         1.5320   -0.0290   -0.5330 c1        1 7UP     -0.105500
     16 C14         2.2410    0.3060   -1.8650 c1        1 7UP      0.025000
     17 C22         1.4960    0.5280   -3.0010 c2        1 7UP     -0.104000
     18 C21         2.1060    0.8730   -4.1480 c1        1 7UP     -0.062000
     19 C17         3.5230    1.0080   -4.1840 c1        1 7UP     -0.059000
     20 C16         4.2520    0.7890   -3.0660 c1        1 7UP     -0.132000
     21 C15         3.6300    0.4390   -1.9020 c1        1 7UP     -0.105000
     22 C20         1.3050    1.3240   -5.4050 c3        1 7UP     -0.121000
     23 C19         2.0730    1.9150   -6.4790 c3        1 7UP     -0.071000
     24 N3          3.3660    1.4330   -6.6630 n3        1 7UP     -0.298000
     25 C18         4.1940    1.4060   -5.5820 c2        1 7UP     -0.039000
     26 H3         -5.3360   -3.0060    5.9240 hn        1 7UP      0.195500
     27 H1         -5.7120   -2.3450    7.3610 hn        1 7UP      0.195500
     28 H2         -5.0800   -0.0290    7.4860 DU        1 7UP      0.138000
     29 H9         -2.0470   -1.4950    5.8130 ha        1 7UP      0.146000
     30 H5         -3.7460   -0.3780    1.4840 ha        1 7UP      0.139000
     31 H4         -5.2630   -0.8020    3.3020 ha        1 7UP      0.130000
     32 H8          0.1880   -1.3950    5.0150 ha        1 7UP      0.146000
     33 H7          1.6590   -1.0280    3.2800 ha        1 7UP      0.139000
     34 H6         -1.4480   -0.3030    0.7640 ha        1 7UP      0.141000
     35 H19         0.4990    0.4020   -2.9810 ha        1 7UP      0.139000
     36 H11         5.1710    0.8770   -3.0900 ha        1 7UP      0.135000
     37 H10         4.1540    0.2470   -1.1140 ha        1 7UP      0.140000
     38 H18         0.7810    0.4700   -5.7900 hc        1 7UP      0.098500
     39 H17         0.6830    1.9450   -5.1330 hc        1 7UP      0.098500
     40 H16         1.5440    1.7630   -7.3760 h1        1 7UP      0.070500
     41 H15         2.1240    2.8570   -6.3210 h1        1 7UP      0.070500
     42 H14         3.7820    1.8920   -7.3820 hn        1 7UP      0.161000
     43 H12         4.6000    2.2970   -5.4830 h4        1 7UP      0.081500
     44 H13         4.9030    0.7700   -5.7630 h4        1 7UP      0.081500
@<TRIPOS>BOND
     1    1    2 1   
     2    1   26 1   
     3    1   27 1   
     4    2    3 1   
     5    2    4 1   
     6    4    9 1   
     7    5    6 1   
     8    5   29 1   
     9    6   10 1   
    10    7    8 1   
    11    7   13 1   
    12    8   30 1   
    13    9   31 1   
    14   10   32 1   
    15   11   12 1   
    16   11   33 1   
    17   12   13 1   
    18   13   34 1   
    19   14   15 1   
    20   16   17 1   
    21   16   21 1   
    22   17   18 1   
    23   17   35 1   
    24   18   22 1   
    25   19   20 1   
    26   20   36 1   
    27   21   37 1   
    28   22   23 1   
    29   22   38 1   
    30   22   39 1   
    31   23   24 1   
    32   23   40 1   
    33   23   41 1   
    34   24   25 1   
    35   24   42 1   
    36   25   43 1   
    37   25   44 1   
@<TRIPOS>SUBSTRUCTURE
     1 7UP         1 TEMP              0 ****  ****    0 ROOT
