@<TRIPOS>MOLECULE
7UP
   45    48     1     0     0
SMALL
bcc


@<TRIPOS>ATOM
      1 N2          0.4700   -0.6690    0.5520 n4        1 7UP     -0.894600
      2 C1          1.5980    0.3710    0.4140 ce        1 7UP      0.642800
      3 N1          1.9990    1.1310    1.3410 n2        1 7UP     -0.681100
      4 C2          2.1400    0.3280   -0.9600 ca        1 7UP     -0.237900
      5 C11         3.4840    0.0780   -1.1570 ca        1 7UP     -0.015000
      6 C10         4.0140    0.0490   -2.4720 ca        1 7UP     -0.060000
      7 C5          3.1540    0.2940   -3.5770 ca        1 7UP     -0.004000
      8 C4          1.7780    0.5760   -3.3350 ca        1 7UP     -0.079000
      9 C3          1.2780    0.5940   -2.0590 ca        1 7UP     -0.146000
     10 C9          5.3900   -0.2130   -2.7110 ca        1 7UP     -0.108000
     11 C8          5.8850   -0.2330   -3.9900 ca        1 7UP     -0.094000
     12 C7          5.0270    0.0090   -5.1040 ca        1 7UP      0.106000
     13 C6          3.6810    0.2680   -4.8900 ca        1 7UP     -0.123000
     14 C12         5.5610   -0.0160   -6.4010 cg        1 7UP     -0.183000
     15 C13         6.0220   -0.0340   -7.5100 ch        1 7UP     -0.006000
     16 C14         6.5650   -0.0530   -8.8060 ca        1 7UP     -0.018000
     17 C22         5.7420    0.1650   -9.9210 ca        1 7UP     -0.092000
     18 C21         6.2790    0.1520  -11.2110 ca        1 7UP     -0.068300
     19 C17         7.6520   -0.0810  -11.3900 ca        1 7UP     -0.044300
     20 C16         8.4720   -0.2980  -10.2770 ca        1 7UP     -0.133000
     21 C15         7.9390   -0.2850   -8.9930 ca        1 7UP     -0.092000
     22 C20         5.4000    0.4150  -12.3800 c3        1 7UP     -0.038100
     23 C19         6.0210   -0.0730  -13.6890 c3        1 7UP      0.164800
     24 N3          7.4050    0.3280  -13.8300 n3        1 7UP     -0.819200
     25 C18         8.2690   -0.1200  -12.7560 c3        1 7UP      0.201100
     26 H3         -0.0340   -0.5990    1.4370 hn        1 7UP      0.455467
     27 H1          0.8810   -1.6030    0.4700 hn        1 7UP      0.455467
     28 H2          1.6350    1.1320    2.2680 hn        1 7UP      0.460400
     29 H9          4.1640   -0.0950   -0.3060 ha        1 7UP      0.154000
     30 H5          1.1250    0.7900   -4.1970 ha        1 7UP      0.159000
     31 H4          0.2250    0.8600   -1.8850 ha        1 7UP      0.127000
     32 H8          6.0540   -0.3960   -1.8510 ha        1 7UP      0.148000
     33 H7          6.9530   -0.4330   -4.1780 ha        1 7UP      0.162000
     34 H6          3.0090    0.4600   -5.7420 ha        1 7UP      0.157000
     35 H19         4.6660    0.3490   -9.7810 ha        1 7UP      0.138000
     36 H11         9.5480   -0.4770  -10.4210 ha        1 7UP      0.143000
     37 H10         8.5910   -0.4540   -8.1230 ha        1 7UP      0.140000
     38 H18         5.2090    1.5210  -12.4440 hc        1 7UP      0.061200
     39 H17         4.4090   -0.0930  -12.2460 hc        1 7UP      0.061200
     40 H16         5.4510    0.3780  -14.5500 h1        1 7UP      0.035700
     41 H15         5.8940   -1.1940  -13.7460 h1        1 7UP      0.035700
     42 H14         7.7700    0.0180  -14.7120 hn        1 7UP      0.373800
     43 H12         9.1720    0.5590  -12.7650 h1        1 7UP      0.048700
     44 H13         8.6420   -1.1770  -12.9210 h1        1 7UP      0.048700
     45 H23        -0.1890   -0.5370   -0.2230 hn        1 7UP      0.455467
@<TRIPOS>BOND
     1    1    2 1   
     2    1   26 1   
     3    1   27 1   
     4    1   45 1   
     5    2    3 2   
     6    2    4 1   
     7    3   28 1   
     8    4    5 ar  
     9    4    9 ar  
    10    5    6 ar  
    11    5   29 1   
    12    6    7 ar  
    13    6   10 ar  
    14    7    8 ar  
    15    7   13 ar  
    16    8    9 ar  
    17    8   30 1   
    18    9   31 1   
    19   10   11 ar  
    20   10   32 1   
    21   11   12 ar  
    22   11   33 1   
    23   12   13 ar  
    24   12   14 1   
    25   13   34 1   
    26   14   15 3   
    27   15   16 1   
    28   16   17 ar  
    29   16   21 ar  
    30   17   18 ar  
    31   17   35 1   
    32   18   19 ar  
    33   18   22 1   
    34   19   20 ar  
    35   19   25 1   
    36   20   21 ar  
    37   20   36 1   
    38   21   37 1   
    39   22   23 1   
    40   22   38 1   
    41   22   39 1   
    42   23   24 1   
    43   23   40 1   
    44   23   41 1   
    45   24   25 1   
    46   24   42 1   
    47   25   43 1   
    48   25   44 1   
@<TRIPOS>SUBSTRUCTURE
     1 7UP         1 TEMP              0 ****  ****    0 ROOT
