@<TRIPOS>MOLECULE
7UP
   45    48     1     0     0
SMALL
bcc


@<TRIPOS>ATOM
      1 N2          0.2760    0.6010    0.0030 nz        1 7UP     -0.894600
      2 C1          1.5160   -0.3120    0.0320 ce        1 7UP      0.642800
      3 N1          1.9010   -0.9780    1.0350 n2        1 7UP     -0.681100
      4 C2          2.1860   -0.2740   -1.2850 ca        1 7UP     -0.236900
      5 C11         3.5080    0.1140   -1.3680 ca        1 7UP     -0.015000
      6 C10         4.1610    0.1380   -2.6270 ca        1 7UP     -0.060000
      7 C5          3.4470   -0.2530   -3.7920 ca        1 7UP     -0.004000
      8 C4          2.0910   -0.6740   -3.6650 ca        1 7UP     -0.079000
      9 C3          1.4710   -0.6870   -2.4430 ca        1 7UP     -0.146000
     10 C9          5.5190    0.5400   -2.7490 ca        1 7UP     -0.108000
     11 C8          6.1350    0.5540   -3.9750 ca        1 7UP     -0.094000
     12 C7          5.4230    0.1670   -5.1500 ca        1 7UP      0.104000
     13 C6          4.0970   -0.2300   -5.0490 ca        1 7UP     -0.122000
     14 C12         6.0760    0.1910   -6.3900 cg        1 7UP     -0.180000
     15 C13         6.6380    0.2100   -7.4510 ch        1 7UP     -0.008000
     16 C14         7.2960    0.2300   -8.6930 ca        1 7UP     -0.016000
     17 C22         8.6410    0.6220   -8.7740 ca        1 7UP     -0.090000
     18 C21         9.3020    0.6410  -10.0050 ca        1 7UP     -0.075300
     19 C17         8.6110    0.2660  -11.1690 ca        1 7UP     -0.081300
     20 C16         7.2700   -0.1240  -11.0870 ca        1 7UP     -0.129000
     21 C15         6.6110   -0.1430   -9.8630 ca        1 7UP     -0.093000
     22 C20        10.7230    1.0780  -10.0630 c3        1 7UP     -0.077100
     23 C19        11.3900    0.7280  -11.3970 c3        1 7UP      0.150800
     24 N3         10.5710    0.9450  -12.5710 n7        1 7UP     -0.792200
     25 C18         9.3060    0.2420  -12.5010 c3        1 7UP      0.189100
     26 H3         -0.2840    0.3610   -0.8220 hn        1 7UP      0.455800
     27 H1          0.5920    1.5700   -0.0940 hn        1 7UP      0.455800
     28 H2          1.4480   -0.9760    1.9220 hn        1 7UP      0.461400
     29 H9          4.0780    0.4010   -0.4690 ha        1 7UP      0.154000
     30 H5          1.5540   -1.0000   -4.5710 ha        1 7UP      0.159000
     31 H4          0.4400   -1.0590   -2.3530 ha        1 7UP      0.128000
     32 H8          6.0710    0.8360   -1.8430 ha        1 7UP      0.148000
     33 H7          7.1880    0.8630   -4.0730 ha        1 7UP      0.161000
     34 H6          3.5380   -0.5360   -5.9470 ha        1 7UP      0.157000
     35 H19         9.1830    0.9140   -7.8610 ha        1 7UP      0.140000
     36 H11         6.7330   -0.4180  -12.0020 ha        1 7UP      0.143000
     37 H10         5.5570   -0.4510   -9.8070 ha        1 7UP      0.139000
     38 H18        10.7630    2.1900   -9.9000 hc        1 7UP      0.058700
     39 H17        11.3050    0.6000   -9.2320 hc        1 7UP      0.058700
     40 H16        11.6810   -0.3600  -11.3830 h1        1 7UP      0.061700
     41 H15        12.3310    1.3360  -11.5070 h1        1 7UP      0.061700
     42 H14        10.4120    1.9280  -12.7010 hn        1 7UP      0.357800
     43 H12         8.6170    0.6570  -13.2900 h1        1 7UP      0.069700
     44 H13         9.5090   -0.8400  -12.7590 h1        1 7UP      0.069700
     45 H23        -0.3040    0.5170    0.8390 hn        1 7UP      0.455800
@<TRIPOS>BOND
     1    1    2 1   
     2    1   26 1   
     3    1   27 1   
     4    1   45 1   
     5    2    3 2   
     6    2    4 1   
     7    3   28 1   
     8    4    5 ar  
     9    4    9 ar  
    10    5    6 ar  
    11    5   29 1   
    12    6    7 ar  
    13    6   10 ar  
    14    7    8 ar  
    15    7   13 ar  
    16    8    9 ar  
    17    8   30 1   
    18    9   31 1   
    19   10   11 ar  
    20   10   32 1   
    21   11   12 ar  
    22   11   33 1   
    23   12   13 ar  
    24   12   14 1   
    25   13   34 1   
    26   14   15 3   
    27   15   16 1   
    28   16   17 ar  
    29   16   21 ar  
    30   17   18 ar  
    31   17   35 1   
    32   18   19 ar  
    33   18   22 1   
    34   19   20 ar  
    35   19   25 1   
    36   20   21 ar  
    37   20   36 1   
    38   21   37 1   
    39   22   23 1   
    40   22   38 1   
    41   22   39 1   
    42   23   24 1   
    43   23   40 1   
    44   23   41 1   
    45   24   25 1   
    46   24   42 1   
    47   25   43 1   
    48   25   44 1   
@<TRIPOS>SUBSTRUCTURE
     1 7UP         1 TEMP              0 ****  ****    0 ROOT
