@<TRIPOS>MOLECULE
7UP
   45    48     1     0     0
SMALL
bcc


@<TRIPOS>ATOM
      1 N2          0.6360    1.2200    0.1140 n4        1 7UP     -0.894600
      2 C1          1.5180   -0.0380    0.0130 ce        1 7UP      0.642800
      3 N1          1.6580   -0.8990    0.9280 n2        1 7UP     -0.681100
      4 C2          2.1800   -0.0710   -1.3080 ca        1 7UP     -0.236900
      5 C11         3.5580   -0.1190   -1.3810 ca        1 7UP     -0.015000
      6 C10         4.1990   -0.1650   -2.6450 ca        1 7UP     -0.060000
      7 C5          3.4110   -0.1750   -3.8280 ca        1 7UP     -0.004000
      8 C4          1.9910   -0.1520   -3.7150 ca        1 7UP     -0.079000
      9 C3          1.3840   -0.1010   -2.4860 ca        1 7UP     -0.146000
     10 C9          5.6160   -0.2080   -2.7570 ca        1 7UP     -0.108000
     11 C8          6.2180   -0.2560   -3.9890 ca        1 7UP     -0.094000
     12 C7          5.4330   -0.2620   -5.1800 ca        1 7UP      0.104000
     13 C6          4.0490   -0.2220   -5.0910 ca        1 7UP     -0.122000
     14 C12         6.0740   -0.3100   -6.4260 cg        1 7UP     -0.180000
     15 C13         6.6250   -0.3550   -7.4930 ch        1 7UP     -0.008000
     16 C14         7.2690   -0.4080   -8.7410 ca        1 7UP     -0.016000
     17 C22         8.6680   -0.4940   -8.8100 ca        1 7UP     -0.090000
     18 C21         9.3140   -0.5510  -10.0480 ca        1 7UP     -0.075300
     19 C17         8.5550   -0.5210  -11.2290 ca        1 7UP     -0.081300
     20 C16         7.1610   -0.4350  -11.1580 ca        1 7UP     -0.129000
     21 C15         6.5160   -0.3780   -9.9280 ca        1 7UP     -0.093000
     22 C20        10.8010   -0.6240  -10.0920 c3        1 7UP     -0.077100
     23 C19        11.3270   -1.0150  -11.4760 c3        1 7UP      0.150800
     24 N3         10.6500   -0.3890  -12.5930 n3        1 7UP     -0.792200
     25 C18         9.2200   -0.6180  -12.5730 c3        1 7UP      0.189100
     26 H3          0.0380    1.2640   -0.7180 hn        1 7UP      0.455800
     27 H1          1.2470    2.0420    0.1140 hn        1 7UP      0.455800
     28 H2          1.2200   -0.8510    1.8210 hn        1 7UP      0.461400
     29 H9          4.1790   -0.1310   -0.4700 ha        1 7UP      0.154000
     30 H5          1.3880   -0.1860   -4.6370 ha        1 7UP      0.159000
     31 H4          0.2870   -0.1320   -2.4130 ha        1 7UP      0.128000
     32 H8          6.2220   -0.2070   -1.8370 ha        1 7UP      0.148000
     33 H7          7.3160   -0.2920   -4.0780 ha        1 7UP      0.161000
     34 H6          3.4320   -0.2310   -6.0030 ha        1 7UP      0.157000
     35 H19         9.2630   -0.5200   -7.8840 ha        1 7UP      0.140000
     36 H11         6.5700   -0.4130  -12.0870 ha        1 7UP      0.143000
     37 H10         5.4200   -0.3110   -9.8800 ha        1 7UP      0.139000
     38 H18        11.2170    0.3770   -9.7980 hc        1 7UP      0.058700
     39 H17        11.1690   -1.3720   -9.3410 hc        1 7UP      0.058700
     40 H16        12.4210   -0.7580  -11.5380 h1        1 7UP      0.061700
     41 H15        11.2260   -2.1310  -11.6020 h1        1 7UP      0.061700
     42 H14        10.8420    0.5980  -12.5990 hn        1 7UP      0.357800
     43 H12         8.7290    0.1020  -13.2870 h1        1 7UP      0.069700
     44 H13         9.0430   -1.6630  -12.9660 h1        1 7UP      0.069700
     45 H23         0.0510    1.2340    0.9500 hn        1 7UP      0.455800
@<TRIPOS>BOND
     1    1    2 1   
     2    1   26 1   
     3    1   27 1   
     4    1   45 1   
     5    2    3 2   
     6    2    4 1   
     7    3   28 1   
     8    4    5 ar  
     9    4    9 ar  
    10    5    6 ar  
    11    5   29 1   
    12    6    7 ar  
    13    6   10 ar  
    14    7    8 ar  
    15    7   13 ar  
    16    8    9 ar  
    17    8   30 1   
    18    9   31 1   
    19   10   11 ar  
    20   10   32 1   
    21   11   12 ar  
    22   11   33 1   
    23   12   13 ar  
    24   12   14 1   
    25   13   34 1   
    26   14   15 3   
    27   15   16 1   
    28   16   17 ar  
    29   16   21 ar  
    30   17   18 ar  
    31   17   35 1   
    32   18   19 ar  
    33   18   22 1   
    34   19   20 ar  
    35   19   25 1   
    36   20   21 ar  
    37   20   36 1   
    38   21   37 1   
    39   22   23 1   
    40   22   38 1   
    41   22   39 1   
    42   23   24 1   
    43   23   40 1   
    44   23   41 1   
    45   24   25 1   
    46   24   42 1   
    47   25   43 1   
    48   25   44 1   
@<TRIPOS>SUBSTRUCTURE
     1 7UP         1 TEMP              0 ****  ****    0 ROOT
