@<TRIPOS>MOLECULE
7UZ
   28    28     1     0     0
SMALL
bcc


@<TRIPOS>ATOM
      1 C1         -0.1280   -0.2790    0.2520 c         1 7UZ      0.927600
      2 O2          0.5480    0.6930    0.7260 o         1 7UZ     -0.888050
      3 O3         -0.4070   -1.2860    0.9680 o         1 7UZ     -0.888050
      4 C4         -0.6860   -0.1230   -1.1750 c3        1 7UZ     -0.259700
      5 C5         -0.3560   -1.2490   -2.1680 c         1 7UZ      0.927600
      6 O6          0.8050   -1.2960   -2.6820 o         1 7UZ     -0.888050
      7 O7         -1.2700   -2.0500   -2.5460 o         1 7UZ     -0.888050
      8 C8         -2.1930    0.0660   -1.0890 c3        1 7UZ     -0.039400
      9 C10        -2.5770    1.3820   -0.4210 c3        1 7UZ     -0.077700
     10 C13        -2.4970    2.5420   -1.4030 c3        1 7UZ     -0.069400
     11 C14        -2.9060    3.8490   -0.7560 c3        1 7UZ     -0.073400
     12 C15        -4.2970    3.7590   -0.1620 c3        1 7UZ     -0.067400
     13 C16        -4.3950    2.6040    0.8130 c3        1 7UZ     -0.073400
     14 C17        -3.9790    1.2970    0.1670 c3        1 7UZ     -0.069400
     15 H4         -0.2200    0.8090   -1.6010 hc        1 7UZ      0.022700
     16 H8         -2.6080   -0.7930   -0.4980 hc        1 7UZ      0.036200
     17 H8A        -2.6410    0.0150   -2.1150 hc        1 7UZ      0.036200
     18 H10        -1.8400    1.5670    0.4140 hc        1 7UZ      0.094700
     19 H13        -3.1620    2.3380   -2.2840 hc        1 7UZ      0.035450
     20 H13A       -1.4440    2.6200   -1.7820 hc        1 7UZ      0.035450
     21 H14        -2.1730    4.1040    0.0540 hc        1 7UZ      0.019700
     22 H14A       -2.8760    4.6770   -1.5120 hc        1 7UZ      0.019700
     23 H15        -5.0450    3.6150   -0.9860 hc        1 7UZ      0.008200
     24 H15A       -4.5530    4.7190    0.3580 hc        1 7UZ      0.008200
     25 H16        -3.7300    2.8060    1.6940 hc        1 7UZ      0.019700
     26 H16A       -5.4470    2.5240    1.1940 hc        1 7UZ      0.019700
     27 H17        -4.0050    0.4780    0.9320 hc        1 7UZ      0.035450
     28 H17A       -4.7090    1.0300   -0.6410 hc        1 7UZ      0.035450
@<TRIPOS>BOND
     1    1    2 1   
     2    1    3 1   
     3    1    4 1   
     4    4    5 1   
     5    4    8 1   
     6    4   15 1   
     7    5    6 1   
     8    5    7 1   
     9    8    9 1   
    10    8   16 1   
    11    8   17 1   
    12    9   10 1   
    13    9   14 1   
    14    9   18 1   
    15   10   11 1   
    16   10   19 1   
    17   10   20 1   
    18   11   12 1   
    19   11   21 1   
    20   11   22 1   
    21   12   13 1   
    22   12   23 1   
    23   12   24 1   
    24   13   14 1   
    25   13   25 1   
    26   13   26 1   
    27   14   27 1   
    28   14   28 1   
@<TRIPOS>SUBSTRUCTURE
     1 7UZ         1 TEMP              0 ****  ****    0 ROOT
