@<TRIPOS>MOLECULE
7UZ
   28    28     1     0     0
SMALL
bcc


@<TRIPOS>ATOM
      1 C1         -0.1580   -0.3080    0.2740 c         1 7UZ      0.927600
      2 O2          0.5330    0.6570    0.7420 o         1 7UZ     -0.888050
      3 O3         -0.4550   -1.3050    0.9970 o         1 7UZ     -0.888050
      4 C4         -0.7090   -0.1550   -1.1560 c3        1 7UZ     -0.259700
      5 C5         -0.3940   -1.2950   -2.1390 c         1 7UZ      0.927600
      6 O6          0.7680   -1.3640   -2.6490 o         1 7UZ     -0.888050
      7 O7         -1.3190   -2.0850   -2.5130 o         1 7UZ     -0.888050
      8 C8         -2.2130    0.0580   -1.0770 c3        1 7UZ     -0.039400
      9 C10        -2.5790    1.3850   -0.4210 c3        1 7UZ     -0.077700
     10 C13        -2.4770    2.5360   -1.4120 c3        1 7UZ     -0.069400
     11 C14        -2.8670    3.8550   -0.7760 c3        1 7UZ     -0.073400
     12 C15        -4.2620    3.7910   -0.1870 c3        1 7UZ     -0.067400
     13 C16        -4.3810    2.6450    0.7970 c3        1 7UZ     -0.073400
     14 C17        -3.9830    1.3270    0.1630 c3        1 7UZ     -0.069400
     15 H4         -0.2270    0.7660   -1.5880 hc        1 7UZ      0.022700
     16 H8         -2.6430   -0.7890   -0.4810 hc        1 7UZ      0.036200
     17 H8A        -2.6590    0.0050   -2.1040 hc        1 7UZ      0.036200
     18 H10        -1.8410    1.5650    0.4160 hc        1 7UZ      0.094700
     19 H13        -3.1420    2.3360   -2.2930 hc        1 7UZ      0.035450
     20 H13A       -1.4220    2.5940   -1.7870 hc        1 7UZ      0.035450
     21 H14        -2.1330    4.1040    0.0340 hc        1 7UZ      0.019700
     22 H14A       -2.8220    4.6750   -1.5390 hc        1 7UZ      0.019700
     23 H15        -4.5050    4.7590    0.3250 hc        1 7UZ      0.008200
     24 H15A       -5.0090    3.6520   -1.0120 hc        1 7UZ      0.008200
     25 H16        -3.7170    2.8440    1.6790 hc        1 7UZ      0.019700
     26 H16A       -5.4350    2.5860    1.1750 hc        1 7UZ      0.019700
     27 H17        -4.0250    0.5150    0.9350 hc        1 7UZ      0.035450
     28 H17A       -4.7150    1.0650   -0.6460 hc        1 7UZ      0.035450
@<TRIPOS>BOND
     1    1    2 1   
     2    1    3 1   
     3    1    4 1   
     4    4    5 1   
     5    4    8 1   
     6    4   15 1   
     7    5    6 1   
     8    5    7 1   
     9    8    9 1   
    10    8   16 1   
    11    8   17 1   
    12    9   10 1   
    13    9   14 1   
    14    9   18 1   
    15   10   11 1   
    16   10   19 1   
    17   10   20 1   
    18   11   12 1   
    19   11   21 1   
    20   11   22 1   
    21   12   13 1   
    22   12   23 1   
    23   12   24 1   
    24   13   14 1   
    25   13   25 1   
    26   13   26 1   
    27   14   27 1   
    28   14   28 1   
@<TRIPOS>SUBSTRUCTURE
     1 7UZ         1 TEMP              0 ****  ****    0 ROOT
