@<TRIPOS>MOLECULE
7VR
   57    59     1     0     0
SMALL
bcc


@<TRIPOS>ATOM
      1 CAA        -0.2420    0.0460    0.9940 c3        1 7VR     -0.105100
      2 CAL         1.1750    0.0340    0.4740 c3        1 7VR      0.146400
      3 OAV         2.0120    0.0590    1.6670 os        1 7VR     -0.199300
      4 NAT         3.3090    0.0520    1.4030 n2        1 7VR     -0.437200
      5 CAC         4.0710    0.0710    2.4640 ce        1 7VR      0.406800
      6 CAY         5.5330    0.0670    2.3910 ca        1 7VR     -0.166900
      7 CAI         6.2530    0.1020    3.5980 ca        1 7VR     -0.070000
      8 CAK         7.6400    0.1000    3.5980 ca        1 7VR     -0.188500
      9 CAH         6.2310    0.0300    1.1790 ca        1 7VR     -0.070000
     10 CAJ         7.6250    0.0280    1.1600 ca        1 7VR     -0.188500
     11 CAZ         8.3290    0.0630    2.3690 ca        1 7VR      0.139100
     12 OAW         9.7040    0.0670    2.4810 os        1 7VR     -0.329900
     13 CAP        10.4340    0.0180    1.2480 c3        1 7VR      0.128400
     14 CAN        11.9020    0.0200    1.6400 c3        1 7VR     -0.086400
     15 CAM        12.7720    0.0300    0.4020 c3        1 7VR     -0.074400
     16 CAO        14.2390    0.0100    0.7760 c3        1 7VR     -0.115400
     17 CAQ        15.0980    0.0540   -0.4870 c3        1 7VR      0.075000
     18 NBB        16.5270    0.0040   -0.3070 n         1 7VR     -0.418800
     19 CAX        17.1170   -1.2290    0.1280 c         1 7VR      0.781500
     20 OAB        16.7130   -2.3530   -0.2120 o         1 7VR     -0.612500
     21 CAR        17.1960    1.1120    0.3700 c3        1 7VR      0.042000
     22 CAS        18.3950    0.4780    1.1390 c3        1 7VR      0.065000
     23 NBC        18.2320   -0.9640    0.9830 n         1 7VR     -0.374000
     24 CBA        19.3020   -1.8360    1.2160 ca        1 7VR      0.117600
     25 CAF        19.2680   -3.1980    0.8340 ca        1 7VR     -0.290300
     26 CAD        20.3620   -4.0140    1.1540 ca        1 7VR      0.414700
     27 NAU        21.4610   -3.5910    1.8080 nb        1 7VR     -0.683000
     28 CAE        21.4860   -2.2950    2.1700 ca        1 7VR      0.414700
     29 CAG        20.4540   -1.3820    1.9060 ca        1 7VR     -0.290300
     30 HAA1       -0.4300    0.9650    1.6000 hc        1 7VR      0.048700
     31 HAA2       -0.9480    0.0270    0.1300 hc        1 7VR      0.048700
     32 HAA3       -0.4310   -0.8450    1.6400 hc        1 7VR      0.048700
     33 HAL1        1.3900   -0.8960   -0.1140 h1        1 7VR      0.045700
     34 HAL2        1.3910    0.9360   -0.1540 h1        1 7VR      0.045700
     35 HAC         3.6510    0.0920    3.4930 h4        1 7VR      0.000800
     36 HAI         5.7130    0.1300    4.5570 ha        1 7VR      0.143000
     37 HAH         5.6850    0.0020    0.2230 ha        1 7VR      0.143000
     38 HAK         8.2110    0.1260    4.5360 ha        1 7VR      0.145000
     39 HAJ         8.1510   -0.0020    0.1960 ha        1 7VR      0.145000
     40 HAP1       10.1650   -0.9160    0.6880 h1        1 7VR      0.041200
     41 HAP2       10.1790    0.9170    0.6270 h1        1 7VR      0.041200
     42 HAN1       12.1160    0.9190    2.2740 hc        1 7VR      0.059700
     43 HAN2       12.1210   -0.8870    2.2620 hc        1 7VR      0.059700
     44 HAM1       12.5490    0.9440   -0.2090 hc        1 7VR      0.045200
     45 HAM2       12.5340   -0.8630   -0.2350 hc        1 7VR      0.045200
     46 HAO1       14.4670   -0.9210    1.3590 hc        1 7VR      0.051200
     47 HAO2       14.4690    0.8860    1.4370 hc        1 7VR      0.051200
     48 HAQ1       14.8250   -0.8250   -1.1420 h1        1 7VR      0.071200
     49 HAQ2       14.8770    1.0040   -1.0520 h1        1 7VR      0.071200
     50 HAR1       17.5600    1.8350   -0.4070 h1        1 7VR      0.061700
     51 HAR2       16.5170    1.6540    1.0810 h1        1 7VR      0.061700
     52 HAS1       18.3590    0.7410    2.2290 h1        1 7VR      0.062700
     53 HAS2       19.3690    0.8330    0.7070 h1        1 7VR      0.062700
     54 HAF        18.4060   -3.6250    0.2980 ha        1 7VR      0.160500
     55 HAG        20.5540   -0.3440    2.2460 ha        1 7VR      0.160500
     56 HAD        20.3570   -5.0810    0.8650 h4        1 7VR      0.023100
     57 HAE        22.3930   -1.9630    2.7080 h4        1 7VR      0.023100
@<TRIPOS>BOND
     1    1    2 1   
     2    1   30 1   
     3    1   31 1   
     4    1   32 1   
     5    2    3 1   
     6    2   33 1   
     7    2   34 1   
     8    3    4 1   
     9    4    5 2   
    10    5    6 1   
    11    5   35 1   
    12    6    7 ar  
    13    6    9 ar  
    14    7    8 ar  
    15    7   36 1   
    16    8   11 ar  
    17    8   38 1   
    18    9   10 ar  
    19    9   37 1   
    20   10   11 ar  
    21   10   39 1   
    22   11   12 1   
    23   12   13 1   
    24   13   14 1   
    25   13   40 1   
    26   13   41 1   
    27   14   15 1   
    28   14   42 1   
    29   14   43 1   
    30   15   16 1   
    31   15   44 1   
    32   15   45 1   
    33   16   17 1   
    34   16   46 1   
    35   16   47 1   
    36   17   18 1   
    37   17   48 1   
    38   17   49 1   
    39   18   19 1   
    40   18   21 1   
    41   19   20 2   
    42   19   23 1   
    43   21   22 1   
    44   21   50 1   
    45   21   51 1   
    46   22   23 1   
    47   22   52 1   
    48   22   53 1   
    49   23   24 1   
    50   24   25 ar  
    51   24   29 ar  
    52   25   26 ar  
    53   25   54 1   
    54   26   27 ar  
    55   26   56 1   
    56   27   28 ar  
    57   28   29 ar  
    58   28   57 1   
    59   29   55 1   
@<TRIPOS>SUBSTRUCTURE
     1 7VR         1 TEMP              0 ****  ****    0 ROOT
