@<TRIPOS>MOLECULE
7VR
   57    59     1     0     0
SMALL
bcc


@<TRIPOS>ATOM
      1 CAA        -0.2410    0.0490    0.9770 c3        1 7VR     -0.105100
      2 CAL         1.1770    0.0430    0.4590 c3        1 7VR      0.146400
      3 OAV         2.0120    0.0590    1.6530 os        1 7VR     -0.199300
      4 NAT         3.3090    0.0550    1.3910 n2        1 7VR     -0.437200
      5 CAC         4.0690    0.0650    2.4540 ce        1 7VR      0.406800
      6 CAY         5.5310    0.0630    2.3840 ca        1 7VR     -0.166900
      7 CAI         6.2500    0.0890    3.5930 ca        1 7VR     -0.070000
      8 CAK         7.6360    0.0880    3.5950 ca        1 7VR     -0.188500
      9 CAH         6.2320    0.0370    1.1730 ca        1 7VR     -0.070000
     10 CAJ         7.6260    0.0360    1.1570 ca        1 7VR     -0.188500
     11 CAZ         8.3280    0.0610    2.3670 ca        1 7VR      0.139100
     12 OAW         9.7020    0.0650    2.4820 os        1 7VR     -0.329900
     13 CAP        10.4350    0.0260    1.2500 c3        1 7VR      0.128400
     14 CAN        11.9020    0.0230    1.6450 c3        1 7VR     -0.086400
     15 CAM        12.7740    0.0430    0.4100 c3        1 7VR     -0.074400
     16 CAO        14.2400    0.0170    0.7860 c3        1 7VR     -0.115400
     17 CAQ        15.1020    0.0700   -0.4750 c3        1 7VR      0.075000
     18 NBB        16.5310    0.0160   -0.2930 n         1 7VR     -0.418800
     19 CAX        17.1180   -1.2230    0.1300 c         1 7VR      0.781500
     20 OAB        16.7120   -2.3430   -0.2220 o         1 7VR     -0.612500
     21 CAR        17.2010    1.1150    0.3970 c3        1 7VR      0.042000
     22 CAS        18.3970    0.4710    1.1610 c3        1 7VR      0.065000
     23 NBC        18.2310   -0.9700    0.9900 n         1 7VR     -0.374000
     24 CBA        19.2990   -1.8460    1.2150 ca        1 7VR      0.117600
     25 CAF        19.2630   -3.2030    0.8180 ca        1 7VR     -0.290300
     26 CAD        20.3560   -4.0250    1.1310 ca        1 7VR      0.414700
     27 NAU        21.4540   -3.6110    1.7910 nb        1 7VR     -0.683000
     28 CAE        21.4810   -2.3190    2.1670 ca        1 7VR      0.414700
     29 CAG        20.4510   -1.4020    1.9120 ca        1 7VR     -0.290300
     30 HAA1       -0.9450    0.0370    0.1110 hc        1 7VR      0.048700
     31 HAA2       -0.4310    0.9620    1.5900 hc        1 7VR      0.048700
     32 HAA3       -0.4300   -0.8470    1.6150 hc        1 7VR      0.048700
     33 HAL1        1.3940   -0.8810   -0.1360 h1        1 7VR      0.045700
     34 HAL2        1.3930    0.9510   -0.1600 h1        1 7VR      0.045700
     35 HAC         3.6480    0.0770    3.4830 h4        1 7VR      0.000800
     36 HAI         5.7070    0.1090    4.5510 ha        1 7VR      0.143000
     37 HAH         5.6880    0.0160    0.2160 ha        1 7VR      0.143000
     38 HAK         8.2050    0.1070    4.5350 ha        1 7VR      0.145000
     39 HAJ         8.1540    0.0140    0.1940 ha        1 7VR      0.145000
     40 HAP1       10.1660   -0.9040    0.6830 h1        1 7VR      0.041200
     41 HAP2       10.1820    0.9300    0.6360 h1        1 7VR      0.041200
     42 HAN1       12.1150    0.9160    2.2880 hc        1 7VR      0.059700
     43 HAN2       12.1190   -0.8890    2.2600 hc        1 7VR      0.059700
     44 HAM1       12.5370   -0.8440   -0.2360 hc        1 7VR      0.045200
     45 HAM2       12.5550    0.9630   -0.1940 hc        1 7VR      0.045200
     46 HAO1       14.4710    0.8860    1.4550 hc        1 7VR      0.051200
     47 HAO2       14.4660   -0.9200    1.3600 hc        1 7VR      0.051200
     48 HAQ1       14.8280   -0.8010   -1.1390 h1        1 7VR      0.071200
     49 HAQ2       14.8850    1.0270   -1.0310 h1        1 7VR      0.071200
     50 HAR1       17.5680    1.8450   -0.3720 h1        1 7VR      0.061700
     51 HAR2       16.5230    1.6520    1.1120 h1        1 7VR      0.061700
     52 HAS1       18.3600    0.7230    2.2540 h1        1 7VR      0.062700
     53 HAS2       19.3730    0.8280    0.7350 h1        1 7VR      0.062700
     54 HAF        18.4010   -3.6230    0.2760 ha        1 7VR      0.160500
     55 HAG        20.5530   -0.3670    2.2630 ha        1 7VR      0.160500
     56 HAD        20.3490   -5.0890    0.8300 h4        1 7VR      0.023100
     57 HAE        22.3880   -1.9950    2.7100 h4        1 7VR      0.023100
@<TRIPOS>BOND
     1    1    2 1   
     2    1   30 1   
     3    1   31 1   
     4    1   32 1   
     5    2    3 1   
     6    2   33 1   
     7    2   34 1   
     8    3    4 1   
     9    4    5 2   
    10    5    6 1   
    11    5   35 1   
    12    6    7 ar  
    13    6    9 ar  
    14    7    8 ar  
    15    7   36 1   
    16    8   11 ar  
    17    8   38 1   
    18    9   10 ar  
    19    9   37 1   
    20   10   11 ar  
    21   10   39 1   
    22   11   12 1   
    23   12   13 1   
    24   13   14 1   
    25   13   40 1   
    26   13   41 1   
    27   14   15 1   
    28   14   42 1   
    29   14   43 1   
    30   15   16 1   
    31   15   44 1   
    32   15   45 1   
    33   16   17 1   
    34   16   46 1   
    35   16   47 1   
    36   17   18 1   
    37   17   48 1   
    38   17   49 1   
    39   18   19 1   
    40   18   21 1   
    41   19   20 2   
    42   19   23 1   
    43   21   22 1   
    44   21   50 1   
    45   21   51 1   
    46   22   23 1   
    47   22   52 1   
    48   22   53 1   
    49   23   24 1   
    50   24   25 ar  
    51   24   29 ar  
    52   25   26 ar  
    53   25   54 1   
    54   26   27 ar  
    55   26   56 1   
    56   27   28 ar  
    57   28   29 ar  
    58   28   57 1   
    59   29   55 1   
@<TRIPOS>SUBSTRUCTURE
     1 7VR         1 TEMP              0 ****  ****    0 ROOT
