@<TRIPOS>MOLECULE
7VR
   57    59     1     0     0
SMALL
bcc


@<TRIPOS>ATOM
      1 CAA        -0.2420    0.0660    0.9790 c3        1 7VR     -0.105100
      2 CAL         1.1760    0.0620    0.4610 c3        1 7VR      0.146400
      3 OAV         2.0110    0.0620    1.6560 os        1 7VR     -0.199300
      4 NAT         3.3090    0.0580    1.3940 n2        1 7VR     -0.437200
      5 CAC         4.0680    0.0550    2.4570 ce        1 7VR      0.406800
      6 CAY         5.5300    0.0500    2.3860 ca        1 7VR     -0.166900
      7 CAI         6.2490    0.0610    3.5950 ca        1 7VR     -0.070000
      8 CAK         7.6350    0.0580    3.5980 ca        1 7VR     -0.188500
      9 CAH         6.2310    0.0340    1.1750 ca        1 7VR     -0.070000
     10 CAJ         7.6250    0.0300    1.1590 ca        1 7VR     -0.188500
     11 CAZ         8.3270    0.0420    2.3690 ca        1 7VR      0.139100
     12 OAW         9.7010    0.0410    2.4840 os        1 7VR     -0.329900
     13 CAP        10.4340    0.0150    1.2520 c3        1 7VR      0.128400
     14 CAN        11.9010    0.0070    1.6460 c3        1 7VR     -0.086400
     15 CAM        12.7740    0.0390    0.4110 c3        1 7VR     -0.074400
     16 CAO        14.2390    0.0120    0.7870 c3        1 7VR     -0.115400
     17 CAQ        15.1010    0.0770   -0.4730 c3        1 7VR      0.075000
     18 NBB        16.5300    0.0250   -0.2910 n         1 7VR     -0.418800
     19 CAX        17.1200   -1.2140    0.1250 c         1 7VR      0.781500
     20 OAB        16.7170   -2.3340   -0.2340 o         1 7VR     -0.612500
     21 CAR        17.1970    1.1220    0.4050 c3        1 7VR      0.042000
     22 CAS        18.3940    0.4770    1.1660 c3        1 7VR      0.065000
     23 NBC        18.2320   -0.9630    0.9870 n         1 7VR     -0.374000
     24 CBA        19.3020   -1.8380    1.2080 ca        1 7VR      0.117600
     25 CAF        19.2700   -3.1930    0.8040 ca        1 7VR     -0.290300
     26 CAD        20.3640   -4.0140    1.1130 ca        1 7VR      0.414700
     27 NAU        21.4610   -3.6010    1.7770 nb        1 7VR     -0.683000
     28 CAE        21.4850   -2.3110    2.1590 ca        1 7VR      0.414700
     29 CAG        20.4530   -1.3950    1.9080 ca        1 7VR     -0.290300
     30 HAA1       -0.4290    0.9720    1.6030 hc        1 7VR      0.048700
     31 HAA2       -0.9460    0.0660    0.1130 hc        1 7VR      0.048700
     32 HAA3       -0.4330   -0.8370    1.6070 hc        1 7VR      0.048700
     33 HAL1        1.3950    0.9770   -0.1470 h1        1 7VR      0.045700
     34 HAL2        1.3910   -0.8550   -0.1440 h1        1 7VR      0.045700
     35 HAC         3.6470    0.0560    3.4850 h4        1 7VR      0.000800
     36 HAI         5.7070    0.0730    4.5530 ha        1 7VR      0.143000
     37 HAH         5.6870    0.0240    0.2180 ha        1 7VR      0.143000
     38 HAK         8.2050    0.0660    4.5380 ha        1 7VR      0.145000
     39 HAJ         8.1530    0.0170    0.1960 ha        1 7VR      0.145000
     40 HAP1       10.1810    0.9250    0.6470 h1        1 7VR      0.041200
     41 HAP2       10.1650   -0.9090    0.6750 h1        1 7VR      0.041200
     42 HAN1       12.1150    0.8950    2.2970 hc        1 7VR      0.059700
     43 HAN2       12.1180   -0.9100    2.2530 hc        1 7VR      0.059700
     44 HAM1       12.5530    0.9640   -0.1840 hc        1 7VR      0.045200
     45 HAM2       12.5370   -0.8430   -0.2420 hc        1 7VR      0.045200
     46 HAO1       14.4660   -0.9290    1.3550 hc        1 7VR      0.051200
     47 HAO2       14.4690    0.8770    1.4640 hc        1 7VR      0.051200
     48 HAQ1       14.8810    1.0360   -1.0220 h1        1 7VR      0.071200
     49 HAQ2       14.8290   -0.7910   -1.1430 h1        1 7VR      0.071200
     50 HAR1       17.5630    1.8580   -0.3590 h1        1 7VR      0.061700
     51 HAR2       16.5170    1.6530    1.1230 h1        1 7VR      0.061700
     52 HAS1       18.3560    0.7220    2.2600 h1        1 7VR      0.062700
     53 HAS2       19.3690    0.8390    0.7430 h1        1 7VR      0.062700
     54 HAF        18.4100   -3.6120    0.2600 ha        1 7VR      0.160500
     55 HAG        20.5520   -0.3620    2.2650 ha        1 7VR      0.160500
     56 HAD        20.3610   -5.0760    0.8070 h4        1 7VR      0.023100
     57 HAE        22.3900   -1.9880    2.7050 h4        1 7VR      0.023100
@<TRIPOS>BOND
     1    1    2 1   
     2    1   30 1   
     3    1   31 1   
     4    1   32 1   
     5    2    3 1   
     6    2   33 1   
     7    2   34 1   
     8    3    4 1   
     9    4    5 2   
    10    5    6 1   
    11    5   35 1   
    12    6    7 ar  
    13    6    9 ar  
    14    7    8 ar  
    15    7   36 1   
    16    8   11 ar  
    17    8   38 1   
    18    9   10 ar  
    19    9   37 1   
    20   10   11 ar  
    21   10   39 1   
    22   11   12 1   
    23   12   13 1   
    24   13   14 1   
    25   13   40 1   
    26   13   41 1   
    27   14   15 1   
    28   14   42 1   
    29   14   43 1   
    30   15   16 1   
    31   15   44 1   
    32   15   45 1   
    33   16   17 1   
    34   16   46 1   
    35   16   47 1   
    36   17   18 1   
    37   17   48 1   
    38   17   49 1   
    39   18   19 1   
    40   18   21 1   
    41   19   20 2   
    42   19   23 1   
    43   21   22 1   
    44   21   50 1   
    45   21   51 1   
    46   22   23 1   
    47   22   52 1   
    48   22   53 1   
    49   23   24 1   
    50   24   25 ar  
    51   24   29 ar  
    52   25   26 ar  
    53   25   54 1   
    54   26   27 ar  
    55   26   56 1   
    56   27   28 ar  
    57   28   29 ar  
    58   28   57 1   
    59   29   55 1   
@<TRIPOS>SUBSTRUCTURE
     1 7VR         1 TEMP              0 ****  ****    0 ROOT
