@<TRIPOS>MOLECULE
7WI
   28    28     1     0     0
SMALL
bcc


@<TRIPOS>ATOM
      1 C1          0.2070    0.0420    0.0040 ca        1 7WI      0.077600
      2 C2          1.5460   -0.3380    0.2350 ca        1 7WI     -0.138000
      3 N3         -0.3100    0.2420   -1.2900 n         1 7WI     -0.462100
      4 C4         -0.6330    0.2980    1.1150 ca        1 7WI     -0.185000
      5 C5          2.0100   -0.4500    1.5460 ca        1 7WI      0.040400
      6 C6          0.1270   -0.4750   -2.4270 c         1 7WI      0.753100
      7 C7         -0.1390    0.1840    2.4090 ca        1 7WI     -0.098000
      8 C8          1.1820   -0.1920    2.6400 ca        1 7WI     -0.151000
      9 CL9         3.6270   -0.9100    1.8130 cl        1 7WI     -0.092400
     10 N10        -0.6700   -0.4020   -3.5880 n         1 7WI     -0.540900
     11 O11         1.1660   -1.1740   -2.4190 o         1 7WI     -0.619100
     12 C12        -0.0730   -0.8510   -4.8250 c3        1 7WI      0.082000
     13 C13        -1.0910   -0.9460   -5.9660 c3        1 7WI      0.115400
     14 O14        -1.5480    0.3790   -6.2310 os        1 7WI     -0.434600
     15 C15        -2.4660    0.4330   -7.3090 c3        1 7WI      0.117700
     16 H2          2.2220   -0.5560   -0.6100 ha        1 7WI      0.186000
     17 H3         -1.2380    0.6060   -1.3090 hn        1 7WI      0.309500
     18 H4         -1.6830    0.5950    0.9670 ha        1 7WI      0.131000
     19 H7         -0.8040    0.3900    3.2620 ha        1 7WI      0.137000
     20 H8          1.5630   -0.2830    3.6670 ha        1 7WI      0.148000
     21 H10        -1.2800    0.3810   -3.6930 hn        1 7WI      0.304500
     22 H121        0.3690   -1.8750   -4.6540 h1        1 7WI      0.065200
     23 H122        0.7600   -0.1590   -5.1410 h1        1 7WI      0.065200
     24 H131       -1.9620   -1.5990   -5.6960 h1        1 7WI      0.041700
     25 H132       -0.5790   -1.3610   -6.8740 h1        1 7WI      0.041700
     26 H151       -2.7280    1.5170   -7.3990 h1        1 7WI      0.035700
     27 H152       -3.3770   -0.1740   -7.0820 h1        1 7WI      0.035700
     28 H153       -1.9890    0.0660   -8.2510 h1        1 7WI      0.035700
@<TRIPOS>BOND
     1    1    2 ar  
     2    1    3 1   
     3    1    4 ar  
     4    2    5 ar  
     5    2   16 1   
     6    3    6 1   
     7    3   17 1   
     8    4    7 ar  
     9    4   18 1   
    10    5    8 ar  
    11    5    9 1   
    12    6   10 1   
    13    6   11 2   
    14    7    8 ar  
    15    7   19 1   
    16    8   20 1   
    17   10   12 1   
    18   10   21 1   
    19   12   13 1   
    20   12   22 1   
    21   12   23 1   
    22   13   14 1   
    23   13   24 1   
    24   13   25 1   
    25   14   15 1   
    26   15   26 1   
    27   15   27 1   
    28   15   28 1   
@<TRIPOS>SUBSTRUCTURE
     1 7WI         1 TEMP              0 ****  ****    0 ROOT
