@<TRIPOS>MOLECULE
7WI
   29    29     1     0     0
SMALL
bcc


@<TRIPOS>ATOM
      1 C1          0.3430   -0.0930   -0.1960 ca        1 7WI      0.007600
      2 C2          1.4250   -0.8800    0.2350 ca        1 7WI     -0.123000
      3 N3         -0.1440   -0.1550   -1.5350 ns        1 7WI     -0.409100
      4 C4         -0.2670    0.8230    0.6890 ca        1 7WI     -0.143000
      5 C5          1.8900   -0.7370    1.5470 ca        1 7WI      0.036400
      6 C6         -0.1010   -1.3010   -2.2770 c         1 7WI      0.642100
      7 C7          0.2210    0.9470    1.9860 ca        1 7WI     -0.090000
      8 C8          1.2950    0.1740    2.4250 ca        1 7WI     -0.101000
      9 Cl9         3.1940   -1.6830    2.0650 cl        1 7WI     -0.038400
     10 N10        -0.8090   -1.2800   -3.6430 ny        1 7WI     -0.667800
     11 O11         0.4720   -2.3720   -2.0550 o         1 7WI     -0.480100
     12 C12        -0.0620   -0.4710   -4.6470 c3        1 7WI      0.102800
     13 C13        -0.8130   -0.3680   -5.9790 c3        1 7WI      0.101400
     14 O14        -2.1120    0.1220   -5.6690 os        1 7WI     -0.468600
     15 C15        -2.8520    0.5180   -6.8210 c3        1 7WI      0.118700
     16 H2          1.9070   -1.6110   -0.4360 ha        1 7WI      0.174000
     17 H3         -0.7120    0.6150   -1.8240 hn        1 7WI      0.348500
     18 H4         -1.1170    1.4470    0.3710 ha        1 7WI      0.145000
     19 H7         -0.2530    1.6650    2.6760 ha        1 7WI      0.164000
     20 H8          1.6680    0.2800    3.4570 ha        1 7WI      0.173000
     21 H10        -0.8600   -2.2590   -3.9630 hn        1 7WI      0.471300
     22 H121        0.9440   -0.9500   -4.8180 hx        1 7WI      0.115700
     23 H122        0.0850    0.5640   -4.2250 hx        1 7WI      0.115700
     24 H131       -0.8970   -1.3650   -6.4880 h1        1 7WI      0.077200
     25 H132       -0.2600    0.3480   -6.6450 h1        1 7WI      0.077200
     26 H151       -2.9900   -0.3510   -7.5090 h1        1 7WI      0.059700
     27 H152       -3.8330    0.8590   -6.4050 h1        1 7WI      0.059700
     28 H153       -2.3300    1.3550   -7.3460 h1        1 7WI      0.059700
     29 H102       -1.7670   -0.9160   -3.5700 hn        1 7WI      0.471300
@<TRIPOS>BOND
     1    1    2 ar  
     2    1    3 1   
     3    1    4 ar  
     4    2    5 ar  
     5    2   16 1   
     6    3    6 1   
     7    3   17 1   
     8    4    7 ar  
     9    4   18 1   
    10    5    8 ar  
    11    5    9 1   
    12    6   10 1   
    13    6   11 2   
    14    7    8 ar  
    15    7   19 1   
    16    8   20 1   
    17   10   12 1   
    18   10   21 1   
    19   10   29 1   
    20   12   13 1   
    21   12   22 1   
    22   12   23 1   
    23   13   14 1   
    24   13   24 1   
    25   13   25 1   
    26   14   15 1   
    27   15   26 1   
    28   15   27 1   
    29   15   28 1   
@<TRIPOS>SUBSTRUCTURE
     1 7WI         1 TEMP              0 ****  ****    0 ROOT
