@<TRIPOS>MOLECULE
7WI
   29    29     1     0     0
SMALL
bcc


@<TRIPOS>ATOM
      1 C1          0.3380   -0.0940   -0.1940 ca        1 7WI      0.007600
      2 C2          1.3980   -0.9060    0.2460 ca        1 7WI     -0.123000
      3 N3         -0.1450   -0.1530   -1.5350 n         1 7WI     -0.409100
      4 C4         -0.2510    0.8430    0.6820 ca        1 7WI     -0.143000
      5 C5          1.8610   -0.7660    1.5590 ca        1 7WI      0.036400
      6 C6         -0.1280   -1.3050   -2.2690 c         1 7WI      0.642100
      7 C7          0.2340    0.9630    1.9800 ca        1 7WI     -0.090000
      8 C8          1.2860    0.1660    2.4290 ca        1 7WI     -0.101000
      9 CL9         3.1380   -1.7420    2.0890 cl        1 7WI     -0.038400
     10 N10        -0.8300   -1.2750   -3.6390 n4        1 7WI     -0.667800
     11 O11         0.4160   -2.3890   -2.0380 o         1 7WI     -0.480100
     12 C12        -0.0590   -0.4910   -4.6450 c3        1 7WI      0.102800
     13 C13        -0.8020   -0.3780   -5.9800 c3        1 7WI      0.101400
     14 O14        -2.0890    0.1460   -5.6790 os        1 7WI     -0.468600
     15 C15        -2.8140    0.5530   -6.8370 c3        1 7WI      0.118700
     16 H2          1.8630   -1.6540   -0.4180 ha        1 7WI      0.174000
     17 H3         -0.6920    0.6290   -1.8310 hn        1 7WI      0.348500
     18 H4         -1.0830    1.4860    0.3560 ha        1 7WI      0.145000
     19 H7         -0.2230    1.6980    2.6630 ha        1 7WI      0.164000
     20 H8          1.6580    0.2690    3.4620 ha        1 7WI      0.173000
     21 H10        -1.7790   -0.8860   -3.5710 hn        1 7WI      0.471300
     22 H121        0.1120    0.5430   -4.2290 hx        1 7WI      0.115700
     23 H122        0.9350   -0.9970   -4.8080 hx        1 7WI      0.115700
     24 H131       -0.2280    0.3190   -6.6490 h1        1 7WI      0.077200
     25 H132       -0.9090   -1.3770   -6.4830 h1        1 7WI      0.077200
     26 H151       -3.7890    0.9210   -6.4270 h1        1 7WI      0.059700
     27 H152       -2.9720   -0.3180   -7.5190 h1        1 7WI      0.059700
     28 H153       -2.2690    1.3730   -7.3650 h1        1 7WI      0.059700
     29 H102       -0.9040   -2.2540   -3.9520 hn        1 7WI      0.471300
@<TRIPOS>BOND
     1    1    2 ar  
     2    1    3 1   
     3    1    4 ar  
     4    2    5 ar  
     5    2   16 1   
     6    3    6 1   
     7    3   17 1   
     8    4    7 ar  
     9    4   18 1   
    10    5    8 ar  
    11    5    9 1   
    12    6   10 1   
    13    6   11 2   
    14    7    8 ar  
    15    7   19 1   
    16    8   20 1   
    17   10   12 1   
    18   10   21 1   
    19   10   29 1   
    20   12   13 1   
    21   12   22 1   
    22   12   23 1   
    23   13   14 1   
    24   13   24 1   
    25   13   25 1   
    26   14   15 1   
    27   15   26 1   
    28   15   27 1   
    29   15   28 1   
@<TRIPOS>SUBSTRUCTURE
     1 7WI         1 TEMP              0 ****  ****    0 ROOT
