@<TRIPOS>MOLECULE
7X1
   60    64     1     0     0
SMALL
bcc


@<TRIPOS>ATOM
      1 C1          0.1400    0.2240   -0.2310 c3        1 7X1      0.107700
      2 O2          1.5560    0.3030   -0.1100 os        1 7X1     -0.299900
      3 C3          2.0550    0.3380    1.1740 ca        1 7X1      0.106100
      4 C4          1.3100    0.2000    2.3250 ca        1 7X1     -0.163000
      5 C5          1.9360    0.2440    3.5940 ca        1 7X1     -0.272600
      6 C6          1.2220    0.0970    4.8590 ca        1 7X1      0.688200
      7 N7         -0.1760   -0.0770    4.8210 nu        1 7X1     -0.707300
      8 C8         -0.9270   -0.2010    6.0040 ca        1 7X1      0.153600
      9 C9         -0.9990    0.8170    6.9540 ca        1 7X1      0.077100
     10 O10        -0.3500    2.0450    6.9560 os        1 7X1     -0.309900
     11 C11        -0.7250    2.7160    8.1810 c3        1 7X1      0.319200
     12 O12        -1.6620    1.8630    8.8800 os        1 7X1     -0.331900
     13 C13        -1.8040    0.7100    8.1180 ca        1 7X1      0.075100
     14 C14        -2.5890   -0.3940    8.3770 ca        1 7X1     -0.119000
     15 C15        -2.5440   -1.4250    7.4230 ca        1 7X1     -0.108000
     16 C16        -1.7450   -1.3390    6.2870 ca        1 7X1     -0.021600
     17 Cl1        -1.7500   -2.6460    5.1920 cl        1 7X1     -0.093400
     18 N18         1.8720    0.1690    6.0420 nb        1 7X1     -0.749000
     19 C19         3.2260    0.3970    5.9820 ca        1 7X1      0.662900
     20 N20         3.9940    0.5350    4.9020 nb        1 7X1     -0.710000
     21 C21         3.3460    0.4550    3.6820 ca        1 7X1      0.445600
     22 C22         4.1050    0.5910    2.4770 ca        1 7X1     -0.258300
     23 C23         3.4800    0.5320    1.2530 ca        1 7X1      0.149100
     24 O24         4.1040    0.6470    0.0330 os        1 7X1     -0.303900
     25 C25         5.5260    0.8480    0.0750 c3        1 7X1      0.120400
     26 C26         5.9830    0.9650   -1.3680 c3        1 7X1     -0.082400
     27 C27         5.9160   -0.3960   -2.0610 c3        1 7X1      0.170800
     28 N28         6.2760   -0.3430   -3.4710 n3        1 7X1     -0.731600
     29 C29         7.7090   -0.1830   -3.6760 c3        1 7X1      0.171800
     30 C30         8.1090   -0.1310   -5.1490 c3        1 7X1     -0.077400
     31 C31         7.5690   -1.3270   -5.9030 c3        1 7X1     -0.078400
     32 C32         6.0740   -1.4430   -5.7000 c3        1 7X1     -0.077400
     33 C33         5.7180   -1.4650   -4.2150 c3        1 7X1      0.171800
     34 H1C1       -0.2370   -0.7400    0.1890 h1        1 7X1      0.046700
     35 H1C2       -0.0250    0.2640   -1.3380 h1        1 7X1      0.046700
     36 H1C3       -0.3510    1.0910    0.2730 h1        1 7X1      0.046700
     37 H4          0.2210    0.0760    2.2480 ha        1 7X1      0.143000
     38 H7         -0.4880   -0.6640    4.0720 hn        1 7X1      0.434800
     39 H111       -1.2400    3.6720    7.9190 h2        1 7X1      0.076200
     40 H112        0.1860    2.8410    8.8170 h2        1 7X1      0.076200
     41 H14        -3.2130   -0.4700    9.2770 ha        1 7X1      0.162000
     42 H15        -3.1570   -2.3250    7.5910 ha        1 7X1      0.155000
     43 H19         3.7280    0.4600    6.9710 h5        1 7X1      0.052100
     44 H22         5.1920    0.7460    2.5590 ha        1 7X1      0.163000
     45 H251        6.0090   -0.0230    0.5910 h1        1 7X1      0.044700
     46 H252        5.7490    1.7940    0.6360 h1        1 7X1      0.044700
     47 H261        5.3320    1.7000   -1.9100 hc        1 7X1      0.064200
     48 H262        7.0310    1.3600   -1.3650 hc        1 7X1      0.064200
     49 H271        6.5710   -1.1210   -1.4930 h1        1 7X1      0.038700
     50 H272        4.8530   -0.7650   -1.9760 h1        1 7X1      0.038700
     51 H291        8.0140    0.7850   -3.1870 h1        1 7X1      0.028450
     52 H292        8.2920   -1.0140   -3.1780 h1        1 7X1      0.028450
     53 H331        4.5970   -1.4140   -4.1140 h1        1 7X1      0.028450
     54 H332        6.0550   -2.4540   -3.7830 h1        1 7X1      0.028450
     55 H301        7.7210    0.8120   -5.6140 hc        1 7X1      0.046450
     56 H302        9.2270   -0.1080   -5.2110 hc        1 7X1      0.046450
     57 H311        8.0720   -2.2610   -5.5380 hc        1 7X1      0.039200
     58 H312        7.7990   -1.2250   -6.9950 hc        1 7X1      0.039200
     59 H321        5.6920   -2.3870   -6.1680 hc        1 7X1      0.046450
     60 H322        5.5590   -0.5810   -6.1990 hc        1 7X1      0.046450
@<TRIPOS>BOND
     1    1    2 1   
     2    1   34 1   
     3    1   35 1   
     4    1   36 1   
     5    2    3 1   
     6    3    4 ar  
     7    3   23 ar  
     8    4    5 ar  
     9    4   37 1   
    10    5    6 ar  
    11    5   21 ar  
    12    6    7 1   
    13    6   18 ar  
    14    7    8 1   
    15    7   38 1   
    16    8    9 ar  
    17    8   16 ar  
    18    9   10 1   
    19    9   13 ar  
    20   10   11 1   
    21   11   12 1   
    22   11   39 1   
    23   11   40 1   
    24   12   13 1   
    25   13   14 ar  
    26   14   15 ar  
    27   14   41 1   
    28   15   16 ar  
    29   15   42 1   
    30   16   17 1   
    31   18   19 ar  
    32   19   20 ar  
    33   19   43 1   
    34   20   21 ar  
    35   21   22 ar  
    36   22   23 ar  
    37   22   44 1   
    38   23   24 1   
    39   24   25 1   
    40   25   26 1   
    41   25   45 1   
    42   25   46 1   
    43   26   27 1   
    44   26   47 1   
    45   26   48 1   
    46   27   28 1   
    47   27   49 1   
    48   27   50 1   
    49   28   29 1   
    50   28   33 1   
    51   29   30 1   
    52   29   51 1   
    53   29   52 1   
    54   30   31 1   
    55   30   55 1   
    56   30   56 1   
    57   31   32 1   
    58   31   57 1   
    59   31   58 1   
    60   32   33 1   
    61   32   59 1   
    62   32   60 1   
    63   33   53 1   
    64   33   54 1   
@<TRIPOS>SUBSTRUCTURE
     1 7X1         1 TEMP              0 ****  ****    0 ROOT
