@<TRIPOS>MOLECULE
7X1
   61    65     1     0     0
SMALL
bcc


@<TRIPOS>ATOM
      1 C1          0.3040    0.7710   -0.2640 c3        1 7X1      0.101700
      2 O2          1.7160    0.6840   -0.0720 os        1 7X1     -0.271900
      3 C3          2.1630    0.5340    1.2090 ca        1 7X1      0.186100
      4 C4          1.3730    0.4490    2.3350 ca        1 7X1     -0.250000
      5 C5          1.9660    0.2920    3.6120 ca        1 7X1     -0.231600
      6 C6          1.2470    0.1880    4.8510 ca        1 7X1      0.507200
      7 N7         -0.2410    0.2460    4.7930 n4        1 7X1     -0.603100
      8 C8         -0.9340   -0.0660    6.0350 ca        1 7X1     -0.032400
      9 C9         -1.3420    0.9420    6.8960 ca        1 7X1      0.104100
     10 O10        -1.2100    2.3070    6.7440 os        1 7X1     -0.341900
     11 C11        -1.8050    2.9200    7.9280 c3        1 7X1      0.329200
     12 O12        -2.3130    1.8440    8.7550 os        1 7X1     -0.302900
     13 C13        -2.0180    0.6520    8.1130 ca        1 7X1      0.084100
     14 C14        -2.2900   -0.6410    8.5060 ca        1 7X1     -0.055000
     15 C15        -1.8740   -1.6680    7.6360 ca        1 7X1     -0.095000
     16 C16        -1.2140   -1.4040    6.4380 ca        1 7X1      0.029400
     17 CL1        -0.7460   -2.6850    5.4340 cl        1 7X1     -0.038400
     18 N18         1.8350    0.0500    6.0470 nb        1 7X1     -0.657000
     19 C19         3.2120    0.0040    6.0320 ca        1 7X1      0.649900
     20 N20         4.0080    0.0820    4.9610 nb        1 7X1     -0.625000
     21 C21         3.4010    0.2270    3.7370 ca        1 7X1      0.455600
     22 C22         4.2010    0.3170    2.5540 ca        1 7X1     -0.257300
     23 C23         3.6100    0.4660    1.3220 ca        1 7X1      0.175100
     24 O24         4.2610    0.5630    0.1290 os        1 7X1     -0.286900
     25 C25         5.7050    0.5290    0.1770 c3        1 7X1      0.120400
     26 C26         6.1700    0.7000   -1.2560 c3        1 7X1     -0.087400
     27 C27         6.0190   -0.6100   -2.0310 c3        1 7X1      0.173800
     28 N28         6.2860   -0.4680   -3.4540 n3        1 7X1     -0.730600
     29 C29         7.6970   -0.2400   -3.7400 c3        1 7X1      0.170800
     30 C30         8.0020   -0.1080   -5.2300 c3        1 7X1     -0.077400
     31 C31         7.4570   -1.2880   -6.0050 c3        1 7X1     -0.079400
     32 C32         5.9820   -1.4660   -5.7200 c3        1 7X1     -0.077400
     33 C33         5.7200   -1.5730   -4.2200 c3        1 7X1      0.170800
     34 H1C1       -0.1100    1.6620    0.2670 h1        1 7X1      0.059367
     35 H1C2        0.2120    0.8910   -1.3750 h1        1 7X1      0.059367
     36 H1C3       -0.1970   -0.1680    0.0760 h1        1 7X1      0.059367
     37 H4          0.2820    0.5120    2.2250 ha        1 7X1      0.129000
     38 H7         -0.4950    1.2050    4.5080 hn        1 7X1      0.473300
     39 H111       -2.6620    3.5570    7.5980 h2        1 7X1      0.103700
     40 H112       -0.9980    3.4550    8.4880 h2        1 7X1      0.103700
     41 H14        -2.8060   -0.8690    9.4520 ha        1 7X1      0.193000
     42 H15        -2.0790   -2.7150    7.9210 ha        1 7X1      0.186000
     43 H19         3.6910   -0.1110    7.0300 h5        1 7X1      0.090100
     44 H22         5.2980    0.2640    2.6590 ha        1 7X1      0.186000
     45 H251        6.0310   -0.4520    0.6110 h1        1 7X1      0.052700
     46 H252        6.0640    1.3760    0.8190 h1        1 7X1      0.052700
     47 H261        5.5750    1.5120   -1.7520 hc        1 7X1      0.075200
     48 H262        7.2440    1.0220   -1.2290 hc        1 7X1      0.075200
     49 H271        4.9530   -0.9580   -1.9060 h1        1 7X1      0.033200
     50 H272        6.6870   -1.3860   -1.5530 h1        1 7X1      0.033200
     51 H291        8.3400   -1.0680   -3.3150 h1        1 7X1      0.028200
     52 H292        7.9940    0.7180   -3.2280 h1        1 7X1      0.028200
     53 H331        4.6060   -1.5670   -4.0490 h1        1 7X1      0.028200
     54 H332        6.1160   -2.5680   -3.8570 h1        1 7X1      0.028200
     55 H301        9.1130   -0.0410   -5.3570 hc        1 7X1      0.050450
     56 H302        7.5540    0.8410   -5.6250 hc        1 7X1      0.050450
     57 H311        8.0140   -2.2180   -5.7180 hc        1 7X1      0.044700
     58 H312        7.6160   -1.1270   -7.1030 hc        1 7X1      0.044700
     59 H321        5.4100   -0.6010   -6.1440 hc        1 7X1      0.050450
     60 H322        5.6040   -2.4000   -6.2100 hc        1 7X1      0.050450
     61 H72        -0.5420   -0.4240    4.0680 hn        1 7X1      0.473300
@<TRIPOS>BOND
     1    1    2 1   
     2    1   34 1   
     3    1   35 1   
     4    1   36 1   
     5    2    3 1   
     6    3    4 ar  
     7    3   23 ar  
     8    4    5 ar  
     9    4   37 1   
    10    5    6 ar  
    11    5   21 ar  
    12    6    7 1   
    13    6   18 ar  
    14    7    8 1   
    15    7   38 1   
    16    7   61 1   
    17    8    9 ar  
    18    8   16 ar  
    19    9   10 1   
    20    9   13 ar  
    21   10   11 1   
    22   11   12 1   
    23   11   39 1   
    24   11   40 1   
    25   12   13 1   
    26   13   14 ar  
    27   14   15 ar  
    28   14   41 1   
    29   15   16 ar  
    30   15   42 1   
    31   16   17 1   
    32   18   19 ar  
    33   19   20 ar  
    34   19   43 1   
    35   20   21 ar  
    36   21   22 ar  
    37   22   23 ar  
    38   22   44 1   
    39   23   24 1   
    40   24   25 1   
    41   25   26 1   
    42   25   45 1   
    43   25   46 1   
    44   26   27 1   
    45   26   47 1   
    46   26   48 1   
    47   27   28 1   
    48   27   49 1   
    49   27   50 1   
    50   28   29 1   
    51   28   33 1   
    52   29   30 1   
    53   29   51 1   
    54   29   52 1   
    55   30   31 1   
    56   30   55 1   
    57   30   56 1   
    58   31   32 1   
    59   31   57 1   
    60   31   58 1   
    61   32   33 1   
    62   32   59 1   
    63   32   60 1   
    64   33   53 1   
    65   33   54 1   
@<TRIPOS>SUBSTRUCTURE
     1 7X1         1 TEMP              0 ****  ****    0 ROOT
