@<TRIPOS>MOLECULE
7X1
   60    64     1     0     0
SMALL
bcc


@<TRIPOS>ATOM
      1 C1          9.6230   10.7340   10.7680 c3        1 7X1      0.107700
      2 O2         11.0240   10.8750   10.9800 os        1 7X1     -0.299900
      3 C3         11.6800    9.7610   11.4580 ca        1 7X1      0.106100
      4 C4         11.1150    8.5190   11.6430 ca        1 7X1     -0.163000
      5 C5         11.8940    7.4420   12.1320 ca        1 7X1     -0.272600
      6 C6         11.3750    6.0940   12.3480 ca        1 7X1      0.688200
      7 N7         10.0140    5.8500   12.0750 nh        1 7X1     -0.707300
      8 C8          9.4460    4.5800   12.2840 ca        1 7X1      0.153600
      9 C9          9.3820    3.9870   13.5440 ca        1 7X1      0.077100
     10 O10         9.8790    4.4660   14.7500 os        1 7X1     -0.309900
     11 C11         9.5940    3.4590   15.7480 c3        1 7X1      0.319200
     12 O12         8.8630    2.3910   15.1010 os        1 7X1     -0.331900
     13 C13         8.7560    2.7320   13.7580 ca        1 7X1      0.075100
     14 C14         8.1470    2.0250   12.7430 ca        1 7X1     -0.119000
     15 C15         8.1840    2.6130   11.4680 ca        1 7X1     -0.108000
     16 C16         8.8120    3.8350   11.2410 ca        1 7X1     -0.021600
     17 CL1         8.8130    4.4630    9.6560 cl        1 7X1     -0.093400
     18 N18        12.1630    5.1120   12.8380 nb        1 7X1     -0.749000
     19 C19        13.4620    5.4570   13.1280 ca        1 7X1      0.662900
     20 N20        14.0580    6.6380   12.9670 nb        1 7X1     -0.710000
     21 C21        13.2690    7.6530   12.4580 ca        1 7X1      0.445600
     22 C22        13.8410    8.9480   12.2550 ca        1 7X1     -0.258300
     23 C23        13.0710    9.9780   11.7650 ca        1 7X1      0.149100
     24 O24        13.5100   11.2580   11.5280 os        1 7X1     -0.303900
     25 C25        14.8910   11.5120   11.8310 c3        1 7X1      0.120400
     26 C26        15.1360   12.9760   11.5140 c3        1 7X1     -0.082400
     27 C27        15.1390   13.2020   10.0020 c3        1 7X1      0.170800
     28 N28        15.3000   14.6010    9.6290 n3        1 7X1     -0.731600
     29 C29        16.6640   15.0760    9.8170 c3        1 7X1      0.171800
     30 C30        16.8570   16.5390    9.4250 c3        1 7X1     -0.077400
     31 C31        16.3670   16.7940    8.0160 c3        1 7X1     -0.078400
     32 C32        14.9360   16.3250    7.8650 c3        1 7X1     -0.077400
     33 C33        14.7860   14.8660    8.2910 c3        1 7X1      0.171800
     34 H1C1        9.1040   10.4460   11.7140 h1        1 7X1      0.046700
     35 H1C2        9.3090   11.7580   10.4400 h1        1 7X1      0.046700
     36 H1C3        9.4200    9.9850    9.9640 h1        1 7X1      0.046700
     37 H4         10.0470    8.3760   11.4260 ha        1 7X1      0.143000
     38 H7          9.6770    6.3230   11.2590 hn        1 7X1      0.434800
     39 H111       10.5600    3.0490   16.1330 h2        1 7X1      0.076200
     40 H112        8.9400    3.9130   16.5330 h2        1 7X1      0.076200
     41 H14         7.6610    1.0560   12.9150 ha        1 7X1      0.162000
     42 H15         7.7080    2.0820   10.6280 ha        1 7X1      0.155000
     43 H19        14.0790    4.6290   13.5380 h5        1 7X1      0.052100
     44 H22        14.9030    9.0950   12.5030 ha        1 7X1      0.163000
     45 H251       15.0730   11.3090   12.9200 h1        1 7X1      0.044700
     46 H252       15.5370   10.8410   11.2060 h1        1 7X1      0.044700
     47 H261       14.3370   13.6020   11.9910 hc        1 7X1      0.064200
     48 H262       16.1210   13.2640   11.9630 hc        1 7X1      0.064200
     49 H271       15.9450   12.5550    9.5440 h1        1 7X1      0.038700
     50 H272       14.1480   12.8360    9.6060 h1        1 7X1      0.038700
     51 H291       16.9140   14.9600   10.9090 h1        1 7X1      0.028450
     52 H292       17.4030   14.4500    9.2310 h1        1 7X1      0.028450
     53 H331       15.2930   14.2150    7.5190 h1        1 7X1      0.028450
     54 H332       13.6900   14.6040    8.2930 h1        1 7X1      0.028450
     55 H301       16.3010   17.1980   10.1410 hc        1 7X1      0.046450
     56 H302       17.9460   16.7860    9.5060 hc        1 7X1      0.046450
     57 H311       16.4360   17.8880    7.7810 hc        1 7X1      0.039200
     58 H312       17.0210   16.2500    7.2850 hc        1 7X1      0.039200
     59 H321       14.2610   16.9710    8.4850 hc        1 7X1      0.046450
     60 H322       14.6110   16.4150    6.7970 hc        1 7X1      0.046450
@<TRIPOS>BOND
     1    1    2 1   
     2    1   34 1   
     3    1   35 1   
     4    1   36 1   
     5    2    3 1   
     6    3    4 ar  
     7    3   23 ar  
     8    4    5 ar  
     9    4   37 1   
    10    5    6 ar  
    11    5   21 ar  
    12    6    7 1   
    13    6   18 ar  
    14    7    8 1   
    15    7   38 1   
    16    8    9 ar  
    17    8   16 ar  
    18    9   10 1   
    19    9   13 ar  
    20   10   11 1   
    21   11   12 1   
    22   11   39 1   
    23   11   40 1   
    24   12   13 1   
    25   13   14 ar  
    26   14   15 ar  
    27   14   41 1   
    28   15   16 ar  
    29   15   42 1   
    30   16   17 1   
    31   18   19 ar  
    32   19   20 ar  
    33   19   43 1   
    34   20   21 ar  
    35   21   22 ar  
    36   22   23 ar  
    37   22   44 1   
    38   23   24 1   
    39   24   25 1   
    40   25   26 1   
    41   25   45 1   
    42   25   46 1   
    43   26   27 1   
    44   26   47 1   
    45   26   48 1   
    46   27   28 1   
    47   27   49 1   
    48   27   50 1   
    49   28   29 1   
    50   28   33 1   
    51   29   30 1   
    52   29   51 1   
    53   29   52 1   
    54   30   31 1   
    55   30   55 1   
    56   30   56 1   
    57   31   32 1   
    58   31   57 1   
    59   31   58 1   
    60   32   33 1   
    61   32   59 1   
    62   32   60 1   
    63   33   53 1   
    64   33   54 1   
@<TRIPOS>SUBSTRUCTURE
     1 7X1         1 TEMP              0 ****  ****    0 ROOT
