@<TRIPOS>MOLECULE
7X1
   60    60     1     0     0
SMALL
bcc


@<TRIPOS>ATOM
      1 C1         -3.1910   -1.3400   -1.5950 c3        1 7X1     -0.082000
      2 O2         -2.0230   -0.5540   -1.4790 os        1 7X1     -0.183000
      3 C3         -1.4380   -0.5870   -0.1970 c2        1 7X1      0.062000
      4 C4         -2.1010   -0.6360    1.0170 c1        1 7X1     -0.162000
      5 C5         -1.3640   -0.6410    2.2310 c1        1 7X1     -0.139000
      6 C6         -2.0450   -0.7030    3.4610 c2        1 7X1      0.157000
      7 N7         -3.4780   -0.7660    3.7700 n3        1 7X1     -0.219000
      8 C8         -3.9200   -0.7340    5.1390 c2        1 7X1      0.071000
      9 C9         -4.2690   -1.8870    5.7590 c2        1 7X1     -0.028000
     10 O10        -4.2810   -3.2430    5.3030 os        1 7X1     -0.226000
     11 C11        -4.7960   -4.0480    6.3370 c3        1 7X1      0.103000
     12 O12        -5.1320   -3.2070    7.4130 os        1 7X1     -0.214000
     13 C13        -4.7710   -1.8600    7.0520 c2        1 7X1      0.029000
     14 C14        -4.9190   -0.6500    7.7170 c2        1 7X1     -0.112000
     15 C15        -4.5620    0.5400    7.0840 c1        1 7X1     -0.118000
     16 C16        -4.0690    0.5080    5.8120 c1        1 7X1     -0.045000
     17 CL1        -3.6500    1.9700    5.0150 cl        1 7X1      0.017000
     18 N18        -1.3580   -0.7200    4.6060 n1        1 7X1     -0.222000
     19 C19         0.0200   -0.6760    4.5860 c1        1 7X1     -0.001000
     20 N20         0.6870   -0.6150    3.3920 n1        1 7X1     -0.182000
     21 C21        -0.0220   -0.5970    2.2050 c1        1 7X1      0.050000
     22 C22         0.6650   -0.5470    0.9490 c2        1 7X1     -0.192000
     23 C23        -0.0550   -0.5420   -0.2300 c2        1 7X1      0.105000
     24 O24         0.4980   -0.6290   -1.5250 os        1 7X1     -0.186000
     25 C25         1.6950    0.0920   -1.6850 c3        1 7X1     -0.028000
     26 C26         2.0620    0.1460   -3.1780 c3        1 7X1     -0.166000
     27 C27         3.4650    0.8400   -3.3530 c3        1 7X1     -0.063000
     28 N28         3.6430    1.2350   -4.7620 n3        1 7X1     -0.253000
     29 C29         5.0270    0.8400   -5.2220 c3        1 7X1     -0.068000
     30 C30         5.3460    1.3510   -6.6000 c3        1 7X1     -0.156000
     31 C31         5.1010    2.7880   -6.7350 c3        1 7X1     -0.157000
     32 C32         3.7070    3.1760   -6.2790 c3        1 7X1     -0.156000
     33 C33         3.3920    2.6510   -4.8880 c3        1 7X1     -0.068000
     34 H1C1       -3.8880   -0.9620   -1.0440 h1        1 7X1      0.086333
     35 H1C2       -3.4930   -1.3520   -2.5560 h1        1 7X1      0.086333
     36 H1C3       -2.9980   -2.2720   -1.2940 h1        1 7X1      0.086333
     37 H4         -3.0410   -0.6420    1.0400 ha        1 7X1      0.145000
     38 H7         -4.1030   -0.9050    3.0770 hn        1 7X1      0.226000
     39 H111       -5.6120   -4.5080    6.0150 h2        1 7X1      0.114500
     40 H112       -4.1070   -4.6770    6.6250 h2        1 7X1      0.114500
     41 H14        -5.2530   -0.6330    8.5760 ha        1 7X1      0.162000
     42 H15        -4.6620    1.3700    7.5360 ha        1 7X1      0.156000
     43 H19         0.5140   -0.6880    5.4120 ha        1 7X1      0.191000
     44 H22         1.6730   -0.5150    0.9240 ha        1 7X1      0.163000
     45 H251        1.5790    0.9740   -1.3560 h1        1 7X1      0.083500
     46 H252        2.3800   -0.3320   -1.2080 h1        1 7X1      0.083500
     47 H261        2.1010   -0.7260   -3.5220 hc        1 7X1      0.106500
     48 H262        1.3910    0.6530   -3.6590 hc        1 7X1      0.106500
     49 H271        3.5120    1.6850   -2.7480 h1        1 7X1      0.069500
     50 H272        4.1960    0.1940   -3.0880 h1        1 7X1      0.069500
     51 H291        5.0900   -0.1340   -5.2260 h1        1 7X1      0.069500
     52 H292        5.6720    1.1890   -4.6040 h1        1 7X1      0.069500
     53 H331        3.9290    3.1160   -4.2520 h1        1 7X1      0.069500
     54 H332        2.4810    2.8170   -4.6990 h1        1 7X1      0.069500
     55 H301        6.3040    1.1690   -6.7950 hc        1 7X1      0.086500
     56 H302        4.7780    0.8600   -7.2690 hc        1 7X1      0.086500
     57 H311        5.7870    3.2970   -6.1710 hc        1 7X1      0.079000
     58 H312        5.2090    3.0400   -7.6630 hc        1 7X1      0.079000
     59 H321        3.6310    4.2070   -6.2730 hc        1 7X1      0.086500
     60 H322        3.0660    2.8190   -6.8990 hc        1 7X1      0.086500
@<TRIPOS>BOND
     1    1    2 1   
     2    1   34 1   
     3    1   35 1   
     4    1   36 1   
     5    2    3 1   
     6    3    4 1   
     7    3   23 1   
     8    4   37 1   
     9    5    6 1   
    10    5   21 1   
    11    6    7 1   
    12    6   18 1   
    13    7    8 1   
    14    7   38 1   
    15    8    9 1   
    16    8   16 1   
    17    9   10 1   
    18    9   13 1   
    19   10   11 1   
    20   11   12 1   
    21   11   39 1   
    22   11   40 1   
    23   12   13 1   
    24   13   14 1   
    25   14   15 1   
    26   14   41 1   
    27   15   42 1   
    28   16   17 1   
    29   19   20 1   
    30   19   43 1   
    31   21   22 1   
    32   22   23 1   
    33   22   44 1   
    34   23   24 1   
    35   24   25 1   
    36   25   26 1   
    37   25   45 1   
    38   25   46 1   
    39   26   27 1   
    40   26   47 1   
    41   26   48 1   
    42   27   28 1   
    43   27   49 1   
    44   27   50 1   
    45   28   29 1   
    46   28   33 1   
    47   29   30 1   
    48   29   51 1   
    49   29   52 1   
    50   30   31 1   
    51   30   55 1   
    52   30   56 1   
    53   31   32 1   
    54   31   57 1   
    55   31   58 1   
    56   32   33 1   
    57   32   59 1   
    58   32   60 1   
    59   33   53 1   
    60   33   54 1   
@<TRIPOS>SUBSTRUCTURE
     1 7X1         1 TEMP              0 ****  ****    0 ROOT
