@<TRIPOS>MOLECULE
7X1
   60    64     1     0     0
SMALL
bcc


@<TRIPOS>ATOM
      1 C1          0.1390    0.2190   -0.2310 c3        1 7X1      0.107700
      2 O2          1.5550    0.2980   -0.1100 os        1 7X1     -0.299900
      3 C3          2.0540    0.3340    1.1750 ca        1 7X1      0.106100
      4 C4          1.3090    0.1980    2.3250 ca        1 7X1     -0.163000
      5 C5          1.9350    0.2430    3.5940 ca        1 7X1     -0.272600
      6 C6          1.2190    0.0990    4.8600 ca        1 7X1      0.688200
      7 N7         -0.1790   -0.0730    4.8210 nh        1 7X1     -0.707300
      8 C8         -0.9300   -0.1930    6.0050 ca        1 7X1      0.153600
      9 C9         -1.0000    0.8260    6.9530 ca        1 7X1      0.077100
     10 O10        -0.3480    2.0530    6.9530 os        1 7X1     -0.309900
     11 C11        -0.7220    2.7260    8.1770 c3        1 7X1      0.319200
     12 O12        -1.6610    1.8760    8.8770 os        1 7X1     -0.331900
     13 C13        -1.8060    0.7220    8.1170 ca        1 7X1      0.075100
     14 C14        -2.5920   -0.3800    8.3780 ca        1 7X1     -0.119000
     15 C15        -2.5500   -1.4120    7.4260 ca        1 7X1     -0.108000
     16 C16        -1.7500   -1.3300    6.2890 ca        1 7X1     -0.021600
     17 CL1        -1.7580   -2.6380    5.1960 cl        1 7X1     -0.093400
     18 N18         1.8700    0.1710    6.0420 nb        1 7X1     -0.749000
     19 C19         3.2240    0.3960    5.9820 ca        1 7X1      0.662900
     20 N20         3.9920    0.5320    4.9020 nb        1 7X1     -0.710000
     21 C21         3.3450    0.4520    3.6820 ca        1 7X1      0.445600
     22 C22         4.1040    0.5850    2.4770 ca        1 7X1     -0.258300
     23 C23         3.4790    0.5250    1.2530 ca        1 7X1      0.149100
     24 O24         4.1030    0.6390    0.0330 os        1 7X1     -0.303900
     25 C25         5.5250    0.8420    0.0750 c3        1 7X1      0.120400
     26 C26         5.9820    0.9590   -1.3680 c3        1 7X1     -0.082400
     27 C27         5.9190   -0.4020   -2.0600 c3        1 7X1      0.170800
     28 N28         6.2770   -0.3480   -3.4710 n3        1 7X1     -0.731600
     29 C29         7.7090   -0.1790   -3.6780 c3        1 7X1      0.171800
     30 C30         8.1070   -0.1270   -5.1520 c3        1 7X1     -0.077400
     31 C31         7.5730   -1.3280   -5.9030 c3        1 7X1     -0.078400
     32 C32         6.0790   -1.4530   -5.6980 c3        1 7X1     -0.077400
     33 C33         5.7260   -1.4760   -4.2130 c3        1 7X1      0.171800
     34 H1C1       -0.0260    0.2570   -1.3380 h1        1 7X1      0.046700
     35 H1C2       -0.2390   -0.7440    0.1900 h1        1 7X1      0.046700
     36 H1C3       -0.3520    1.0870    0.2720 h1        1 7X1      0.046700
     37 H4          0.2190    0.0760    2.2480 ha        1 7X1      0.143000
     38 H7         -0.4920   -0.6600    4.0740 hn        1 7X1      0.434800
     39 H111        0.1890    2.8500    8.8130 h2        1 7X1      0.076200
     40 H112       -1.2360    3.6830    7.9130 h2        1 7X1      0.076200
     41 H14        -3.2160   -0.4530    9.2770 ha        1 7X1      0.162000
     42 H15        -3.1640   -2.3110    7.5940 ha        1 7X1      0.155000
     43 H19         3.7260    0.4600    6.9710 h5        1 7X1      0.052100
     44 H22         5.1910    0.7390    2.5590 ha        1 7X1      0.163000
     45 H251        6.0090   -0.0290    0.5910 h1        1 7X1      0.044700
     46 H252        5.7470    1.7880    0.6360 h1        1 7X1      0.044700
     47 H261        5.3290    1.6920   -1.9100 hc        1 7X1      0.064200
     48 H262        7.0290    1.3580   -1.3650 hc        1 7X1      0.064200
     49 H271        4.8580   -0.7750   -1.9740 h1        1 7X1      0.038700
     50 H272        6.5780   -1.1250   -1.4920 h1        1 7X1      0.038700
     51 H291        8.0080    0.7910   -3.1910 h1        1 7X1      0.028450
     52 H292        8.2980   -1.0060   -3.1800 h1        1 7X1      0.028450
     53 H331        6.0700   -2.4610   -3.7790 h1        1 7X1      0.028450
     54 H332        4.6040   -1.4310   -4.1090 h1        1 7X1      0.028450
     55 H301        7.7110    0.8130   -5.6170 hc        1 7X1      0.046450
     56 H302        9.2250   -0.0970   -5.2150 hc        1 7X1      0.046450
     57 H311        8.0830   -2.2580   -5.5380 hc        1 7X1      0.039200
     58 H312        7.8010   -1.2260   -6.9950 hc        1 7X1      0.039200
     59 H321        5.7040   -2.4000   -6.1640 hc        1 7X1      0.046450
     60 H322        5.5580   -0.5950   -6.1970 hc        1 7X1      0.046450
@<TRIPOS>BOND
     1    1    2 1   
     2    1   34 1   
     3    1   35 1   
     4    1   36 1   
     5    2    3 1   
     6    3    4 ar  
     7    3   23 ar  
     8    4    5 ar  
     9    4   37 1   
    10    5    6 ar  
    11    5   21 ar  
    12    6    7 1   
    13    6   18 ar  
    14    7    8 1   
    15    7   38 1   
    16    8    9 ar  
    17    8   16 ar  
    18    9   10 1   
    19    9   13 ar  
    20   10   11 1   
    21   11   12 1   
    22   11   39 1   
    23   11   40 1   
    24   12   13 1   
    25   13   14 ar  
    26   14   15 ar  
    27   14   41 1   
    28   15   16 ar  
    29   15   42 1   
    30   16   17 1   
    31   18   19 ar  
    32   19   20 ar  
    33   19   43 1   
    34   20   21 ar  
    35   21   22 ar  
    36   22   23 ar  
    37   22   44 1   
    38   23   24 1   
    39   24   25 1   
    40   25   26 1   
    41   25   45 1   
    42   25   46 1   
    43   26   27 1   
    44   26   47 1   
    45   26   48 1   
    46   27   28 1   
    47   27   49 1   
    48   27   50 1   
    49   28   29 1   
    50   28   33 1   
    51   29   30 1   
    52   29   51 1   
    53   29   52 1   
    54   30   31 1   
    55   30   55 1   
    56   30   56 1   
    57   31   32 1   
    58   31   57 1   
    59   31   58 1   
    60   32   33 1   
    61   32   59 1   
    62   32   60 1   
    63   33   53 1   
    64   33   54 1   
@<TRIPOS>SUBSTRUCTURE
     1 7X1         1 TEMP              0 ****  ****    0 ROOT
