@<TRIPOS>MOLECULE
7X2
   51    54     1     0     0
SMALL
bcc


@<TRIPOS>ATOM
      1 C1         -0.4280   -0.1190    1.3360 c3        1 7X2      0.103200
      2 O2          0.9180   -0.3090    0.8970 os        1 7X2     -0.301900
      3 C3          1.9130    0.0680    1.7570 ca        1 7X2      0.090100
      4 C4          1.7190    0.4750    3.0690 ca        1 7X2     -0.144000
      5 C5          2.8460    0.8310    3.8450 ca        1 7X2     -0.097400
      6 N6          2.6400    1.2840    5.2240 n4        1 7X2     -0.590100
      7 C7          2.5370    0.1170    6.1620 ca        1 7X2      0.760900
      8 N8          1.2720   -0.3950    6.3690 nb        1 7X2     -0.623000
      9 C9          1.1960   -1.4620    7.1760 ca        1 7X2      0.495200
     10 C10         2.3330   -2.0480    7.7930 ca        1 7X2     -0.271600
     11 C11         3.5730   -1.4390    7.5170 ca        1 7X2      0.535200
     12 N12         4.8150   -1.9900    8.1200 n4        1 7X2     -0.600100
     13 C13         4.8960   -1.7420    9.5560 ca        1 7X2     -0.078400
     14 C14         4.3520   -2.6390   10.4660 ca        1 7X2      0.088100
     15 O15         3.6440   -3.7950   10.2110 os        1 7X2     -0.364900
     16 C16         3.3630   -4.4100   11.5130 c3        1 7X2      0.333200
     17 O17         3.8770   -3.5070   12.5220 os        1 7X2     -0.285900
     18 C18         4.4930   -2.4550   11.8680 ca        1 7X2      0.097100
     19 C19         5.1590   -1.3670   12.3970 ca        1 7X2     -0.036000
     20 C20         5.6990   -0.4470   11.4760 ca        1 7X2     -0.081000
     21 C21         5.5790   -0.6130   10.0980 ca        1 7X2      0.019400
     22 CL1         6.2710    0.5170    9.0450 cl        1 7X2     -0.029400
     23 N23         3.7030   -0.3490    6.7010 nb        1 7X2     -0.662000
     24 C24         4.1410    0.7780    3.3230 ca        1 7X2     -0.144000
     25 C25         4.3270    0.3700    1.9950 ca        1 7X2      0.090100
     26 O26         5.6160    0.2190    1.5150 os        1 7X2     -0.301900
     27 C27         6.3340    1.4470    1.3450 c3        1 7X2      0.103200
     28 C28         3.2350   -0.0010    1.1880 ca        1 7X2      0.197100
     29 O29         3.2560   -0.4450   -0.0900 os        1 7X2     -0.263900
     30 C30         4.5140   -0.5730   -0.7650 c3        1 7X2      0.111700
     31 H1C1       -0.6160    0.9530    1.5840 h1        1 7X2      0.061533
     32 H1C2       -1.0250   -0.4310    0.4380 h1        1 7X2      0.061533
     33 H1C3       -0.6500   -0.7800    2.2080 h1        1 7X2      0.061533
     34 H4          0.7010    0.5220    3.4870 ha        1 7X2      0.164000
     35 H6          1.7580    1.8230    5.2730 hn        1 7X2      0.488300
     36 H24         5.0300    1.0490    3.9160 ha        1 7X2      0.164000
     37 H9          0.1740   -1.8760    7.3440 h4        1 7X2      0.103100
     38 H10         2.2280   -2.9250    8.4570 ha        1 7X2      0.222000
     39 H12         4.8100   -3.0120    7.9630 hn        1 7X2      0.494300
     40 H161        3.9200   -5.3790   11.5710 h2        1 7X2      0.115700
     41 H162        2.2530   -4.4850   11.6280 h2        1 7X2      0.115700
     42 H19         5.2720   -1.2220   13.4850 ha        1 7X2      0.211000
     43 H20         6.2430    0.4340   11.8690 ha        1 7X2      0.201000
     44 H271        5.8210    2.0980    0.5970 h1        1 7X2      0.061533
     45 H272        7.3320    1.1090    0.9660 h1        1 7X2      0.061533
     46 H273        6.4370    1.9760    2.3220 h1        1 7X2      0.061533
     47 H301        4.2050   -0.9640   -1.7700 h1        1 7X2      0.073367
     48 H302        5.0080    0.4250   -0.8530 h1        1 7X2      0.073367
     49 H303        5.1710   -1.2980   -0.2280 h1        1 7X2      0.073367
     50 H62         3.4270    1.8850    5.5110 hn        1 7X2      0.488300
     51 H122        5.6520   -1.5760    7.6660 hn        1 7X2      0.494300
@<TRIPOS>BOND
     1    1    2 1   
     2    1   31 1   
     3    1   32 1   
     4    1   33 1   
     5    2    3 1   
     6    3    4 ar  
     7    3   28 ar  
     8    4    5 ar  
     9    4   34 1   
    10    5    6 1   
    11    5   24 ar  
    12    6    7 1   
    13    6   35 1   
    14    6   50 1   
    15    7    8 ar  
    16    7   23 ar  
    17    8    9 ar  
    18    9   10 ar  
    19    9   37 1   
    20   10   11 ar  
    21   10   38 1   
    22   11   12 1   
    23   11   23 ar  
    24   12   13 1   
    25   12   39 1   
    26   12   51 1   
    27   13   14 ar  
    28   13   21 ar  
    29   14   15 1   
    30   14   18 ar  
    31   15   16 1   
    32   16   17 1   
    33   16   40 1   
    34   16   41 1   
    35   17   18 1   
    36   18   19 ar  
    37   19   20 ar  
    38   19   42 1   
    39   20   21 ar  
    40   20   43 1   
    41   21   22 1   
    42   24   25 ar  
    43   24   36 1   
    44   25   26 1   
    45   25   28 ar  
    46   26   27 1   
    47   27   44 1   
    48   27   45 1   
    49   27   46 1   
    50   28   29 1   
    51   29   30 1   
    52   30   47 1   
    53   30   48 1   
    54   30   49 1   
@<TRIPOS>SUBSTRUCTURE
     1 7X2         1 TEMP              0 ****  ****    0 ROOT
