@<TRIPOS>MOLECULE
7X2
   49    52     1     0     0
SMALL
bcc


@<TRIPOS>ATOM
      1 C1          0.0490   -0.6910    0.2590 c3        1 7X2      0.111200
      2 O2          1.4690   -0.6020    0.2270 os        1 7X2     -0.311900
      3 C3          2.0770   -0.1150    1.3650 ca        1 7X2      0.148600
      4 C4          1.4070    0.1270    2.5670 ca        1 7X2     -0.236000
      5 C5          2.1230    0.6010    3.6880 ca        1 7X2      0.191600
      6 N6          1.4130    0.9310    4.8670 nh        1 7X2     -0.709300
      7 C7          1.6830    0.3090    6.1080 ca        1 7X2      0.892900
      8 N8          0.6820    0.4240    7.0730 nb        1 7X2     -0.765000
      9 C9          0.9730   -0.0840    8.2780 ca        1 7X2      0.479200
     10 C10         2.1810   -0.7190    8.5930 ca        1 7X2     -0.434600
     11 C11         3.1410   -0.8250    7.5480 ca        1 7X2      0.701200
     12 N12         4.3440   -1.5400    7.7200 nh        1 7X2     -0.707300
     13 C13         4.9460   -1.6260    8.9900 ca        1 7X2      0.138600
     14 C14         4.4840   -2.4860    9.9850 ca        1 7X2      0.064100
     15 O15         3.3620   -3.3070    9.9660 os        1 7X2     -0.316900
     16 C16         3.3310   -4.0080   11.2320 c3        1 7X2      0.317200
     17 O17         4.4610   -3.5540   12.0120 os        1 7X2     -0.328900
     18 C18         5.1500   -2.6340   11.2300 ca        1 7X2      0.069100
     19 C19         6.3030   -1.9460   11.5410 ca        1 7X2     -0.110000
     20 C20         6.7900   -1.0750   10.5510 ca        1 7X2     -0.111000
     21 C21         6.1410   -0.9150    9.3290 ca        1 7X2     -0.015600
     22 CL1         6.8070    0.1640    8.1950 cl        1 7X2     -0.080400
     23 N23         2.9050   -0.2980    6.3030 nb        1 7X2     -0.787000
     24 C24         3.5080    0.8230    3.5930 ca        1 7X2     -0.236000
     25 C25         4.1670    0.5710    2.3850 ca        1 7X2      0.148600
     26 O26         5.5280    0.7270    2.2060 os        1 7X2     -0.311900
     27 C27         6.2410    1.3290    3.2820 c3        1 7X2      0.111200
     28 C28         3.4640    0.1180    1.2500 ca        1 7X2      0.031100
     29 O29         4.0720    0.0050    0.0150 os        1 7X2     -0.308900
     30 C30         4.9190   -1.1400   -0.1030 c3        1 7X2      0.115700
     31 H1C1       -0.2100   -1.0220   -0.7790 h1        1 7X2      0.046033
     32 H1C2       -0.2800   -1.4520    1.0070 h1        1 7X2      0.046033
     33 H1C3       -0.4090    0.3040    0.4810 h1        1 7X2      0.046033
     34 H4          0.3250   -0.0530    2.6380 ha        1 7X2      0.151000
     35 H6          0.4430    1.1290    4.7150 hn        1 7X2      0.439800
     36 H24         4.0700    1.1930    4.4620 ha        1 7X2      0.151000
     37 H9          0.1770    0.0210    9.0400 h4        1 7X2      0.027100
     38 H10         2.3600   -1.1390    9.5880 ha        1 7X2      0.163000
     39 H12         5.0070   -1.4510    6.9710 hn        1 7X2      0.441800
     40 H161        3.4460   -5.1030   11.0370 h2        1 7X2      0.078200
     41 H162        2.3910   -3.7310   11.7700 h2        1 7X2      0.078200
     42 H19         6.8160   -2.0670   12.5030 ha        1 7X2      0.165000
     43 H20         7.7100   -0.5050   10.7570 ha        1 7X2      0.158000
     44 H271        5.8230    2.3370    3.5220 h1        1 7X2      0.046033
     45 H272        7.2820    1.4180    2.8800 h1        1 7X2      0.046033
     46 H273        6.2200    0.6700    4.1830 h1        1 7X2      0.046033
     47 H301        5.7380   -1.0960    0.6550 h1        1 7X2      0.041033
     48 H302        5.3280   -1.0570   -1.1400 h1        1 7X2      0.041033
     49 H303        4.3230   -2.0770    0.0150 h1        1 7X2      0.041033
@<TRIPOS>BOND
     1    1    2 1   
     2    1   31 1   
     3    1   32 1   
     4    1   33 1   
     5    2    3 1   
     6    3    4 ar  
     7    3   28 ar  
     8    4    5 ar  
     9    4   34 1   
    10    5    6 1   
    11    5   24 ar  
    12    6    7 1   
    13    6   35 1   
    14    7    8 ar  
    15    7   23 ar  
    16    8    9 ar  
    17    9   10 ar  
    18    9   37 1   
    19   10   11 ar  
    20   10   38 1   
    21   11   12 1   
    22   11   23 ar  
    23   12   13 1   
    24   12   39 1   
    25   13   14 ar  
    26   13   21 ar  
    27   14   15 1   
    28   14   18 ar  
    29   15   16 1   
    30   16   17 1   
    31   16   40 1   
    32   16   41 1   
    33   17   18 1   
    34   18   19 ar  
    35   19   20 ar  
    36   19   42 1   
    37   20   21 ar  
    38   20   43 1   
    39   21   22 1   
    40   24   25 ar  
    41   24   36 1   
    42   25   26 1   
    43   25   28 ar  
    44   26   27 1   
    45   27   44 1   
    46   27   45 1   
    47   27   46 1   
    48   28   29 1   
    49   29   30 1   
    50   30   47 1   
    51   30   48 1   
    52   30   49 1   
@<TRIPOS>SUBSTRUCTURE
     1 7X2         1 TEMP              0 ****  ****    0 ROOT
