@<TRIPOS>MOLECULE
7X2
   49    47     1     0     0
SMALL
bcc


@<TRIPOS>ATOM
      1 C1          3.1070    3.5980   -1.8560 c3        1 7X2     -0.079000
      2 O2          3.4890    2.5530   -2.6280 os        1 7X2     -0.201000
      3 C3          2.4320    1.6500   -2.9370 c2        1 7X2      0.096000
      4 C4          2.0140    0.7230   -1.9920 c1        1 7X2     -0.203000
      5 C5          1.0260   -0.2190   -2.3190 c1        1 7X2      0.109000
      6 N6          0.5650   -1.1270   -1.3370 n3        1 7X2     -0.228000
      7 C7          0.0730   -0.6340   -0.0830 c2        1 7X2      0.175000
      8 N8          0.6240    0.4830    0.4720 n1        1 7X2     -0.225000
      9 C9          0.2390    0.8890    1.7040 c1        1 7X2     -0.146500
     10 C10        -0.7000    0.1810    2.3890 c1        1 7X2     -0.146500
     11 C11        -1.2460   -0.9300    1.8320 c1        1 7X2      0.183000
     12 N12        -2.2750   -1.6890    2.5590 n3        1 7X2     -0.228000
     13 C13        -1.8960   -2.5510    3.6710 c2        1 7X2      0.056000
     14 C14        -2.0480   -2.0960    4.9880 c2        1 7X2      0.019000
     15 O15        -2.5760   -0.8780    5.5210 os        1 7X2     -0.201000
     16 C16        -2.5510   -0.9690    6.9270 c3        1 7X2      0.095000
     17 O17        -2.0120   -2.2120    7.2680 os        1 7X2     -0.213000
     18 C18        -1.7310   -2.9240    6.0510 c2        1 7X2      0.023000
     19 C19        -1.2560   -4.2230    5.8150 c2        1 7X2     -0.110000
     20 C20        -1.1030   -4.6820    4.5120 c1        1 7X2     -0.112000
     21 C21        -1.4240   -3.8410    3.4310 c1        1 7X2     -0.095000
     22 CL1        -1.3350   -4.4500    1.7860 cl        1 7X2      0.003000
     23 N23        -0.8540   -1.3330    0.5910 n2        1 7X2     -0.278000
     24 C24         0.4680   -0.2240   -3.5840 c1        1 7X2     -0.268000
     25 C25         0.8830    0.6960   -4.5240 c1        1 7X2      0.112000
     26 O26         0.3790    0.6290   -5.8520 os        1 7X2     -0.189000
     27 C27        -0.9290    1.0980   -5.9860 c3        1 7X2     -0.079000
     28 C28         1.8810    1.6460   -4.1910 c2        1 7X2     -0.015000
     29 O29         2.3990    2.5400   -5.2100 os        1 7X2     -0.192000
     30 C30         1.8320    3.9120   -5.1560 c3        1 7X2     -0.075000
     31 H1C1        2.9060    4.3600   -2.4210 h1        1 7X2      0.086667
     32 H1C2        2.3080    3.3510   -1.3450 h1        1 7X2      0.086667
     33 H1C3        3.8700    3.8430   -1.2060 h1        1 7X2      0.086667
     34 H4          2.4220    0.6890   -1.1770 ha        1 7X2      0.163000
     35 H6          0.6520   -2.0650   -1.4790 hn        1 7X2      0.233000
     36 H24        -0.2390   -0.8980   -3.8200 ha        1 7X2      0.140000
     37 H9          0.6220    1.6630    2.0860 ha        1 7X2      0.163000
     38 H10        -0.9860    0.4750    3.2980 ha        1 7X2      0.163000
     39 H12        -3.1540   -1.6930    2.2500 hn        1 7X2      0.237000
     40 H161       -3.4620   -0.9110    7.2670 h2        1 7X2      0.117500
     41 H162       -1.9930   -0.2790    7.2760 h2        1 7X2      0.117500
     42 H19        -1.0340   -4.8000    6.5640 ha        1 7X2      0.165000
     43 H20        -0.7560   -5.6170    4.3420 ha        1 7X2      0.158000
     44 H271       -1.5660    0.3340   -5.9030 h1        1 7X2      0.084333
     45 H272       -1.1170    1.7650   -5.2740 h1        1 7X2      0.084333
     46 H273       -1.0350    1.5160   -6.8570 h1        1 7X2      0.084333
     47 H301        1.4640    4.1660   -6.0800 h1        1 7X2      0.080000
     48 H302        1.0890    3.9430   -4.4780 h1        1 7X2      0.080000
     49 H303        2.5320    4.5430   -4.9000 h1        1 7X2      0.080000
@<TRIPOS>BOND
     1    1    2 1   
     2    1   31 1   
     3    1   32 1   
     4    1   33 1   
     5    2    3 1   
     6    3    4 1   
     7    3   28 1   
     8    4   34 1   
     9    5    6 1   
    10    5   24 1   
    11    6    7 1   
    12    6   35 1   
    13    7    8 1   
    14    7   23 1   
    15    9   10 1   
    16    9   37 1   
    17   10   38 1   
    18   11   12 1   
    19   11   23 1   
    20   12   13 1   
    21   12   39 1   
    22   13   14 1   
    23   13   21 1   
    24   14   15 1   
    25   14   18 1   
    26   15   16 1   
    27   16   17 1   
    28   16   40 1   
    29   16   41 1   
    30   17   18 1   
    31   18   19 1   
    32   19   20 1   
    33   19   42 1   
    34   20   43 1   
    35   21   22 1   
    36   24   36 1   
    37   25   26 1   
    38   25   28 1   
    39   26   27 1   
    40   27   44 1   
    41   27   45 1   
    42   27   46 1   
    43   28   29 1   
    44   29   30 1   
    45   30   47 1   
    46   30   48 1   
    47   30   49 1   
@<TRIPOS>SUBSTRUCTURE
     1 7X2         1 TEMP              0 ****  ****    0 ROOT
