@<TRIPOS>MOLECULE
7X2
   49    52     1     0     0
SMALL
bcc


@<TRIPOS>ATOM
      1 C1          0.0370   -0.6420    0.2670 c3        1 7X2      0.111200
      2 O2          1.4580   -0.5680    0.2320 os        1 7X2     -0.311900
      3 C3          2.0730   -0.0890    1.3690 ca        1 7X2      0.148600
      4 C4          1.4090    0.1590    2.5720 ca        1 7X2     -0.236000
      5 C5          2.1320    0.6240    3.6930 ca        1 7X2      0.191600
      6 N6          1.4290    0.9600    4.8740 nu        1 7X2     -0.709300
      7 C7          1.6950    0.3340    6.1140 ca        1 7X2      0.892900
      8 N8          0.6980    0.4570    7.0800 nb        1 7X2     -0.765000
      9 C9          0.9850   -0.0550    8.2840 ca        1 7X2      0.479200
     10 C10         2.1880   -0.7030    8.5960 ca        1 7X2     -0.434600
     11 C11         3.1460   -0.8160    7.5480 ca        1 7X2      0.701200
     12 N12         4.3420   -1.5430    7.7170 nu        1 7X2     -0.707300
     13 C13         4.9450   -1.6370    8.9860 ca        1 7X2      0.138600
     14 C14         4.4770   -2.4950    9.9810 ca        1 7X2      0.064100
     15 O15         3.3470   -3.3050    9.9620 os        1 7X2     -0.316900
     16 C16         3.3120   -4.0080   11.2260 c3        1 7X2      0.317200
     17 O17         4.4470   -3.5660   12.0060 os        1 7X2     -0.328900
     18 C18         5.1430   -2.6510   11.2240 ca        1 7X2      0.069100
     19 C19         6.3030   -1.9740   11.5340 ca        1 7X2     -0.110000
     20 C20         6.7960   -1.1060   10.5450 ca        1 7X2     -0.111000
     21 C21         6.1470   -0.9380    9.3250 ca        1 7X2     -0.015600
     22 Cl1         6.8210    0.1370    8.1910 cl        1 7X2     -0.080400
     23 N23         2.9120   -0.2850    6.3050 nb        1 7X2     -0.787000
     24 C24         3.5190    0.8310    3.5950 ca        1 7X2     -0.236000
     25 C25         4.1730    0.5750    2.3840 ca        1 7X2      0.148600
     26 O26         5.5340    0.7170    2.2030 os        1 7X2     -0.311900
     27 C27         6.2560    1.3100    3.2770 c3        1 7X2      0.111200
     28 C28         3.4620    0.1300    1.2510 ca        1 7X2      0.031100
     29 O29         4.0660    0.0120    0.0140 os        1 7X2     -0.308900
     30 C30         4.9010   -1.1410   -0.1070 c3        1 7X2      0.115700
     31 H1C1       -0.2290   -0.9690   -0.7710 h1        1 7X2      0.046033
     32 H1C2       -0.4100    0.3570    0.4920 h1        1 7X2      0.046033
     33 H1C3       -0.2990   -1.4010    1.0150 h1        1 7X2      0.046033
     34 H4          0.3250   -0.0110    2.6460 ha        1 7X2      0.151000
     35 H6          0.4600    1.1670    4.7240 hn        1 7X2      0.439800
     36 H24         4.0870    1.1950    4.4630 ha        1 7X2      0.151000
     37 H9          0.1920    0.0560    9.0480 h4        1 7X2      0.027100
     38 H10         2.3660   -1.1260    9.5900 ha        1 7X2      0.163000
     39 H12         5.0040   -1.4590    6.9670 hn        1 7X2      0.441800
     40 H161        2.3750   -3.7230   11.7660 h2        1 7X2      0.078200
     41 H162        3.4160   -5.1030   11.0300 h2        1 7X2      0.078200
     42 H19         6.8170   -2.1020   12.4950 ha        1 7X2      0.165000
     43 H20         7.7220   -0.5450   10.7510 ha        1 7X2      0.158000
     44 H271        6.2310    0.6490    4.1780 h1        1 7X2      0.046033
     45 H272        7.2980    1.3880    2.8740 h1        1 7X2      0.046033
     46 H273        5.8500    2.3210    3.5200 h1        1 7X2      0.046033
     47 H301        5.3090   -1.0610   -1.1450 h1        1 7X2      0.041033
     48 H302        5.7220   -1.1070    0.6490 h1        1 7X2      0.041033
     49 H303        4.2960   -2.0720    0.0120 h1        1 7X2      0.041033
@<TRIPOS>BOND
     1    1    2 1   
     2    1   31 1   
     3    1   32 1   
     4    1   33 1   
     5    2    3 1   
     6    3    4 ar  
     7    3   28 ar  
     8    4    5 ar  
     9    4   34 1   
    10    5    6 1   
    11    5   24 ar  
    12    6    7 1   
    13    6   35 1   
    14    7    8 ar  
    15    7   23 ar  
    16    8    9 ar  
    17    9   10 ar  
    18    9   37 1   
    19   10   11 ar  
    20   10   38 1   
    21   11   12 1   
    22   11   23 ar  
    23   12   13 1   
    24   12   39 1   
    25   13   14 ar  
    26   13   21 ar  
    27   14   15 1   
    28   14   18 ar  
    29   15   16 1   
    30   16   17 1   
    31   16   40 1   
    32   16   41 1   
    33   17   18 1   
    34   18   19 ar  
    35   19   20 ar  
    36   19   42 1   
    37   20   21 ar  
    38   20   43 1   
    39   21   22 1   
    40   24   25 ar  
    41   24   36 1   
    42   25   26 1   
    43   25   28 ar  
    44   26   27 1   
    45   27   44 1   
    46   27   45 1   
    47   27   46 1   
    48   28   29 1   
    49   29   30 1   
    50   30   47 1   
    51   30   48 1   
    52   30   49 1   
@<TRIPOS>SUBSTRUCTURE
     1 7X2         1 TEMP              0 ****  ****    0 ROOT
