@<TRIPOS>MOLECULE
7X2
   49    52     1     0     0
SMALL
bcc


@<TRIPOS>ATOM
      1 C1         15.3180   11.7270   11.6680 c3        1 7X2      0.111200
      2 O2         14.0760   11.7280   10.9740 os        1 7X2     -0.311900
      3 C3         13.6000   10.4980   10.5700 ca        1 7X2      0.148600
      4 C4         14.1700    9.2780   10.9430 ca        1 7X2     -0.236000
      5 C5         13.5920    8.0670   10.5000 ca        1 7X2      0.191600
      6 N6         14.2370    6.8460   10.8090 nh        1 7X2     -0.709300
      7 C7         13.5960    5.8190   11.5390 ca        1 7X2      0.892900
      8 N8         14.4390    4.8630   12.1060 nb        1 7X2     -0.765000
      9 C9         13.8300    3.8400   12.7200 ca        1 7X2      0.479200
     10 C10        12.4400    3.7040   12.8310 ca        1 7X2     -0.434600
     11 C11        11.6460    4.7340   12.2520 ca        1 7X2      0.701200
     12 N12        10.2450    4.7570   12.3990 nh        1 7X2     -0.707300
     13 C13         9.5230    3.5550   12.5290 ca        1 7X2      0.138600
     14 C14         9.4710    2.8330   13.7210 ca        1 7X2      0.064100
     15 O15        10.1460    3.0790   14.9110 os        1 7X2     -0.316900
     16 C16         9.7410    2.0520   15.8450 c3        1 7X2      0.317200
     17 O17         8.8210    1.1720   15.1580 os        1 7X2     -0.328900
     18 C18         8.6680    1.6720   13.8710 ca        1 7X2      0.069100
     19 C19         7.8780    1.1810   12.8540 ca        1 7X2     -0.110000
     20 C20         7.9100    1.8950   11.6440 ca        1 7X2     -0.111000
     21 C21         8.7000    3.0300   11.4820 ca        1 7X2     -0.015600
     22 CL1         8.6740    3.8260    9.9780 cl        1 7X2     -0.080400
     23 N23        12.2190    5.7910   11.5890 nb        1 7X2     -0.787000
     24 C24        12.4440    8.0940    9.6900 ca        1 7X2     -0.236000
     25 C25        11.8800    9.3220    9.3280 ca        1 7X2      0.148600
     26 O26        10.7370    9.4470    8.5650 os        1 7X2     -0.311900
     27 C27        10.2200    8.2460    8.0000 c3        1 7X2      0.111200
     28 C28        12.4570   10.5400    9.7440 ca        1 7X2      0.031100
     29 O29        11.9990   11.7570    9.2770 os        1 7X2     -0.308900
     30 C30        10.7740   12.1780    9.8800 c3        1 7X2      0.115700
     31 H1C1       16.1180   11.2450   11.0560 h1        1 7X2      0.046033
     32 H1C2       15.5330   12.8160   11.8110 h1        1 7X2      0.046033
     33 H1C3       15.2160   11.2130   12.6550 h1        1 7X2      0.046033
     34 H4         15.0640    9.2630   11.5820 ha        1 7X2      0.151000
     35 H6         15.2130    6.9430   11.0150 hn        1 7X2      0.439800
     36 H24        11.9920    7.1540    9.3400 ha        1 7X2      0.151000
     37 H9         14.5060    3.0820   13.1590 h4        1 7X2      0.027100
     38 H10        11.9920    2.8590   13.3640 ha        1 7X2      0.163000
     39 H12         9.7680    5.4510   11.8520 hn        1 7X2      0.441800
     40 H161       10.6440    1.4630   16.1420 h2        1 7X2      0.078200
     41 H162        9.2050    2.5350   16.6990 h2        1 7X2      0.078200
     42 H19         7.2560    0.2850   12.9770 ha        1 7X2      0.165000
     43 H20         7.2930    1.5370   10.8050 ha        1 7X2      0.158000
     44 H271       10.9880    7.7430    7.3630 h1        1 7X2      0.046033
     45 H272        9.8640    7.5570    8.8040 h1        1 7X2      0.046033
     46 H273        9.3610    8.6040    7.3780 h1        1 7X2      0.046033
     47 H301       10.9110   12.3200   10.9790 h1        1 7X2      0.041033
     48 H302       10.5560   13.1520    9.3770 h1        1 7X2      0.041033
     49 H303        9.9670   11.4330    9.6770 h1        1 7X2      0.041033
@<TRIPOS>BOND
     1    1    2 1   
     2    1   31 1   
     3    1   32 1   
     4    1   33 1   
     5    2    3 1   
     6    3    4 ar  
     7    3   28 ar  
     8    4    5 ar  
     9    4   34 1   
    10    5    6 1   
    11    5   24 ar  
    12    6    7 1   
    13    6   35 1   
    14    7    8 ar  
    15    7   23 ar  
    16    8    9 ar  
    17    9   10 ar  
    18    9   37 1   
    19   10   11 ar  
    20   10   38 1   
    21   11   12 1   
    22   11   23 ar  
    23   12   13 1   
    24   12   39 1   
    25   13   14 ar  
    26   13   21 ar  
    27   14   15 1   
    28   14   18 ar  
    29   15   16 1   
    30   16   17 1   
    31   16   40 1   
    32   16   41 1   
    33   17   18 1   
    34   18   19 ar  
    35   19   20 ar  
    36   19   42 1   
    37   20   21 ar  
    38   20   43 1   
    39   21   22 1   
    40   24   25 ar  
    41   24   36 1   
    42   25   26 1   
    43   25   28 ar  
    44   26   27 1   
    45   27   44 1   
    46   27   45 1   
    47   27   46 1   
    48   28   29 1   
    49   29   30 1   
    50   30   47 1   
    51   30   48 1   
    52   30   49 1   
@<TRIPOS>SUBSTRUCTURE
     1 7X2         1 TEMP              0 ****  ****    0 ROOT
