@<TRIPOS>MOLECULE
7X3
   51    53     1     0     0
SMALL
bcc


@<TRIPOS>ATOM
      1 C1         -0.4290    2.3120    0.8810 c3        1 7X3      0.099700
      2 O2          0.9950    2.4810    0.9470 os        1 7X3     -0.272900
      3 C3          1.6280    2.1020    2.0840 ca        1 7X3      0.232100
      4 C4          0.9830    1.5030    3.1840 ca        1 7X3     -0.199000
      5 C5          1.6970    1.1400    4.3140 ca        1 7X3     -0.031000
      6 C6          3.0810    1.3890    4.3620 ca        1 7X3     -0.148400
      7 N7          3.8360    1.0760    5.5760 n4        1 7X3     -0.592100
      8 C8          4.3560   -0.3310    5.5440 ca        1 7X3      0.791900
      9 N9          3.4690   -1.3330    5.8550 nb        1 7X3     -0.651000
     10 C10         3.9920   -2.5910    5.7910 ca        1 7X3      0.744900
     11 N11         5.2740   -2.9060    5.4510 nb        1 7X3     -0.653000
     12 C12         6.0710   -1.8250    5.1600 ca        1 7X3      0.796900
     13 N13         7.4870   -2.1100    4.7530 n4        1 7X3     -0.593100
     14 C14         7.5720   -2.3920    3.3170 ca        1 7X3     -0.094400
     15 C15         7.2870   -3.6860    2.8550 ca        1 7X3     -0.164000
     16 C16         7.4140   -3.9640    1.4910 ca        1 7X3      0.107100
     17 O17         7.1310   -5.1980    0.9500 os        1 7X3     -0.293400
     18 C18         7.0820   -6.3060    1.8510 c3        1 7X3      0.103200
     19 C19         7.8160   -2.9570    0.5780 ca        1 7X3      0.192100
     20 O20         7.9560   -3.0630   -0.7640 os        1 7X3     -0.265900
     21 C21         7.8330   -4.3490   -1.3880 c3        1 7X3      0.113700
     22 C22         8.0910   -1.6470    1.0890 ca        1 7X3      0.107100
     23 O23         8.4460   -0.7330    0.1300 os        1 7X3     -0.293400
     24 C24         9.0590    0.4740    0.5850 c3        1 7X3      0.103200
     25 C25         7.9670   -1.3600    2.4430 ca        1 7X3     -0.164000
     26 N26         5.6770   -0.5050    5.1900 nb        1 7X3     -0.694000
     27 C27         3.7500    1.9750    3.2670 ca        1 7X3     -0.069000
     28 C28         3.0350    2.3330    2.1310 ca        1 7X3     -0.014600
     29 CL1         3.8610    3.0410    0.8430 cl        1 7X3      0.015600
     30 H1C1       -0.6720    2.7280   -0.1330 h1        1 7X3      0.077700
     31 H1C2       -0.6920    1.2290    0.9430 h1        1 7X3      0.077700
     32 H1C3       -0.9280    2.9030    1.6860 h1        1 7X3      0.077700
     33 H4         -0.1060    1.3210    3.1550 ha        1 7X3      0.187000
     34 H5          1.1660    0.6690    5.1600 ha        1 7X3      0.168000
     35 H7          3.2130    1.1750    6.3960 hn        1 7X3      0.492800
     36 H27         4.8370    2.1700    3.3000 ha        1 7X3      0.164000
     37 H10         3.3050   -3.4420    6.0410 h5        1 7X3      0.138100
     38 H13         8.0800   -1.2950    4.9780 hn        1 7X3      0.492300
     39 H15         6.9710   -4.4850    3.5450 ha        1 7X3      0.163000
     40 H25         8.1940   -0.3470    2.8100 ha        1 7X3      0.163000
     41 H181        8.0080   -6.3590    2.4710 h1        1 7X3      0.062200
     42 H182        7.0150   -7.1860    1.1580 h1        1 7X3      0.062200
     43 H183        6.1690   -6.2410    2.4910 h1        1 7X3      0.062200
     44 H211        6.7920   -4.7340   -1.2720 h1        1 7X3      0.075033
     45 H212        8.5780   -5.0610   -0.9630 h1        1 7X3      0.075033
     46 H213        8.0620   -4.1120   -2.4610 h1        1 7X3      0.075033
     47 H241        9.3830    0.9620   -0.3720 h1        1 7X3      0.062200
     48 H242        8.3120    1.1100    1.1180 h1        1 7X3      0.062200
     49 H243        9.9380    0.2550    1.2370 h1        1 7X3      0.062200
     50 H72         4.6280    1.7340    5.6650 hn        1 7X3      0.492800
     51 H132        7.8200   -2.9360    5.2800 hn        1 7X3      0.492300
@<TRIPOS>BOND
     1    1    2 1   
     2    1   30 1   
     3    1   31 1   
     4    1   32 1   
     5    2    3 1   
     6    3    4 ar  
     7    3   28 ar  
     8    4    5 ar  
     9    4   33 1   
    10    5    6 ar  
    11    5   34 1   
    12    6    7 1   
    13    6   27 ar  
    14    7    8 1   
    15    7   35 1   
    16    7   50 1   
    17    8    9 ar  
    18    8   26 ar  
    19    9   10 ar  
    20   10   11 ar  
    21   10   37 1   
    22   11   12 ar  
    23   12   13 1   
    24   12   26 ar  
    25   13   14 1   
    26   13   38 1   
    27   13   51 1   
    28   14   15 ar  
    29   14   25 ar  
    30   15   16 ar  
    31   15   39 1   
    32   16   17 1   
    33   16   19 ar  
    34   17   18 1   
    35   18   41 1   
    36   18   42 1   
    37   18   43 1   
    38   19   20 1   
    39   19   22 ar  
    40   20   21 1   
    41   21   44 1   
    42   21   45 1   
    43   21   46 1   
    44   22   23 1   
    45   22   25 ar  
    46   23   24 1   
    47   24   47 1   
    48   24   48 1   
    49   24   49 1   
    50   25   40 1   
    51   27   28 ar  
    52   27   36 1   
    53   28   29 1   
@<TRIPOS>SUBSTRUCTURE
     1 7X3         1 TEMP              0 ****  ****    0 ROOT
