@<TRIPOS>MOLECULE
7X3
   49    45     1     0     0
SMALL
bcc


@<TRIPOS>ATOM
      1 C1         -2.8540   -1.8280    8.7190 c3        1 7X3     -0.077000
      2 O2         -3.1960   -2.2010    7.4090 os        1 7X3     -0.194000
      3 C3         -2.5930   -1.3690    6.3960 c2        1 7X3      0.084000
      4 C4         -1.2460   -1.5480    6.0530 c2        1 7X3     -0.187000
      5 C5         -0.6640   -0.7470    5.0750 c1        1 7X3     -0.124000
      6 C6         -1.4130    0.2260    4.4420 c1        1 7X3      0.019000
      7 N7         -0.7980    1.1020    3.5370 n3        1 7X3     -0.228000
      8 C8         -0.6640    0.7230    2.1440 c2        1 7X3      0.197000
      9 N9         -1.5950   -0.0860    1.5690 n2        1 7X3     -0.262000
     10 C10        -1.5160   -0.3840    0.2090 c1        1 7X3      0.039000
     11 N11        -0.5320    0.1210   -0.5280 n1        1 7X3     -0.266000
     12 C12         0.4030    0.9320    0.0460 c1        1 7X3      0.200000
     13 N13         1.5700    1.3530   -0.7310 n2        1 7X3     -0.233000
     14 C14         1.6620    1.0160   -2.0730 c2        1 7X3      0.089000
     15 C15         1.9040    2.0080   -3.0300 c2        1 7X3     -0.192000
     16 C16         2.0180    1.6520   -4.4360 c1        1 7X3      0.084500
     17 O17         2.3580    2.6420   -5.4000 o         1 7X3     -0.214000
     18 C18         1.2670    3.1170   -6.1350 c3        1 7X3     -0.076500
     19 C19         1.8880    0.3390   -4.8250 c2        1 7X3     -0.009000
     20 O20         2.1040   -0.0140   -6.1510 os        1 7X3     -0.213000
     21 C21         3.4320   -0.4240   -6.4260 c3        1 7X3     -0.073000
     22 C22         1.6420   -0.6720   -3.8510 c1        1 7X3      0.084500
     23 O23         1.4740   -2.0280   -4.2600 o         1 7X3     -0.214000
     24 C24         0.1190   -2.4870   -4.1970 c3        1 7X3     -0.076500
     25 C25         1.5300   -0.3230   -2.4720 c2        1 7X3     -0.192000
     26 N26         0.3260    1.2320    1.4070 n2        1 7X3     -0.311000
     27 C27        -2.7570    0.4060    4.7830 c1        1 7X3     -0.070000
     28 C28        -3.3430   -0.3970    5.7630 c1        1 7X3     -0.082000
     29 CL1        -5.0620   -0.1000    6.2720 cl        1 7X3      0.011000
     30 H1C1       -3.5840   -2.2620    9.4340 h1        1 7X3      0.087000
     31 H1C2       -2.8670   -0.8010    8.7940 h1        1 7X3      0.087000
     32 H1C3       -2.0080   -2.1410    8.9160 h1        1 7X3      0.087000
     33 H4         -0.7230   -2.2290    6.4880 ha        1 7X3      0.144000
     34 H5          0.2800   -0.8740    4.8360 ha        1 7X3      0.138000
     35 H7         -0.4290    1.9760    3.8570 hn        1 7X3      0.241000
     36 H27        -3.3180    1.1320    4.3070 ha        1 7X3      0.171000
     37 H10        -2.1540   -0.9390   -0.1850 ha        1 7X3      0.195000
     38 H13         2.3400    1.8450   -0.2740 hn        1 7X3      0.245000
     39 H15         2.0040    2.8600   -2.7730 ha        1 7X3      0.157500
     40 H25         1.3620   -1.0160   -1.8040 ha        1 7X3      0.157500
     41 H181        0.4870    3.2760   -5.5130 h1        1 7X3      0.087333
     42 H182        1.5200    3.9900   -6.5890 h1        1 7X3      0.087333
     43 H183        0.9860    2.3850   -6.8860 h1        1 7X3      0.087333
     44 H211        3.9960   -0.3700   -5.5610 h1        1 7X3      0.084000
     45 H212        3.4290   -1.3810   -6.7680 h1        1 7X3      0.084000
     46 H213        3.7910    0.1240   -7.0570 h1        1 7X3      0.084000
     47 H241       -0.3990   -2.0720   -4.9120 h1        1 7X3      0.087333
     48 H242        0.0980   -3.5270   -4.3070 h1        1 7X3      0.087333
     49 H243       -0.2770   -2.2370   -3.3120 h1        1 7X3      0.087333
@<TRIPOS>BOND
     1    1    2 1   
     2    1   30 1   
     3    1   31 1   
     4    1   32 1   
     5    2    3 1   
     6    3    4 1   
     7    3   28 1   
     8    4    5 1   
     9    4   33 1   
    10    5   34 1   
    11    6    7 1   
    12    6   27 1   
    13    7    8 1   
    14    7   35 1   
    15    8    9 1   
    16    8   26 1   
    17    9   10 1   
    18   10   37 1   
    19   11   12 1   
    20   12   26 1   
    21   13   14 1   
    22   13   38 1   
    23   14   15 1   
    24   14   25 1   
    25   15   16 1   
    26   15   39 1   
    27   16   19 1   
    28   17   18 1   
    29   18   41 1   
    30   18   42 1   
    31   18   43 1   
    32   19   20 1   
    33   19   22 1   
    34   20   21 1   
    35   21   44 1   
    36   21   45 1   
    37   21   46 1   
    38   22   25 1   
    39   23   24 1   
    40   24   47 1   
    41   24   48 1   
    42   24   49 1   
    43   25   40 1   
    44   27   36 1   
    45   28   29 1   
@<TRIPOS>SUBSTRUCTURE
     1 7X3         1 TEMP              0 ****  ****    0 ROOT
