@<TRIPOS>MOLECULE
7X3
   49    51     1     0     0
SMALL
bcc


@<TRIPOS>ATOM
      1 C1         -0.0390   -0.4290    0.0120 c3        1 7X3      0.111700
      2 O2          1.3490   -0.1470    0.1530 os        1 7X3     -0.311900
      3 C3          1.8130    0.0210    1.4420 ca        1 7X3      0.122100
      4 C4          1.0300   -0.1920    2.5830 ca        1 7X3     -0.186000
      5 C5          1.5730   -0.0190    3.8490 ca        1 7X3     -0.128000
      6 C6          2.9160    0.3840    4.0060 ca        1 7X3      0.108600
      7 N7          3.4180    0.6510    5.2990 nu        1 7X3     -0.714300
      8 C8          4.5420    0.0170    5.8430 ca        1 7X3      0.915900
      9 N9          4.7250    0.1780    7.2200 nb        1 7X3     -0.809000
     10 C10         5.8710   -0.3610    7.6930 ca        1 7X3      0.708900
     11 N11         6.8190   -1.0310    7.0020 nb        1 7X3     -0.809000
     12 C12         6.5380   -1.1810    5.6380 ca        1 7X3      0.922900
     13 N13         7.4600   -1.9390    4.9120 nu        1 7X3     -0.720300
     14 C14         7.4940   -2.0390    3.5030 ca        1 7X3      0.195600
     15 C15         6.3780   -2.4780    2.7710 ca        1 7X3     -0.237500
     16 C16         6.4930   -2.6710    1.3880 ca        1 7X3      0.151600
     17 O17         5.4610   -3.1140    0.5880 os        1 7X3     -0.308400
     18 C18         4.1820   -3.2260    1.2060 c3        1 7X3      0.109200
     19 C19         7.7100   -2.4370    0.7180 ca        1 7X3      0.033100
     20 O20         7.8840   -2.7580   -0.6150 os        1 7X3     -0.308900
     21 C21         7.2220   -1.8650   -1.5130 c3        1 7X3      0.113700
     22 C22         8.8150   -1.9720    1.4640 ca        1 7X3      0.151600
     23 O23         9.9540   -1.7230    0.7290 os        1 7X3     -0.308400
     24 C24        11.1260   -1.3980    1.4690 c3        1 7X3      0.109200
     25 C25         8.7160   -1.7790    2.8430 ca        1 7X3     -0.237500
     26 N26         5.4130   -0.6670    5.0100 nb        1 7X3     -0.810000
     27 C27         3.7030    0.6000    2.8570 ca        1 7X3     -0.077000
     28 C28         3.1590    0.4200    1.5850 ca        1 7X3     -0.007600
     29 Cl1         4.1510    0.7100    0.2370 cl        1 7X3     -0.063400
     30 H1C1       -0.2860   -1.4200    0.4650 h1        1 7X3      0.047700
     31 H1C2       -0.6580    0.3800    0.4700 h1        1 7X3      0.047700
     32 H1C3       -0.1820   -0.4570   -1.0980 h1        1 7X3      0.047700
     33 H4         -0.0220   -0.5010    2.4900 ha        1 7X3      0.145000
     34 H5          0.9350   -0.1930    4.7300 ha        1 7X3      0.139000
     35 H7          2.7330    0.9540    5.9630 hn        1 7X3      0.451800
     36 H27         4.7560    0.9150    2.9530 ha        1 7X3      0.174000
     37 H10         6.0550   -0.2380    8.7830 h5        1 7X3      0.057100
     38 H13         8.3320   -2.1120    5.3700 hn        1 7X3      0.455800
     39 H15         5.4230   -2.6750    3.2780 ha        1 7X3      0.152000
     40 H25         9.5880   -1.4250    3.4120 ha        1 7X3      0.152000
     41 H181        3.8560   -2.2400    1.6200 h1        1 7X3      0.047200
     42 H182        3.5180   -3.5390    0.3600 h1        1 7X3      0.047200
     43 H183        4.1980   -4.0070    2.0030 h1        1 7X3      0.047200
     44 H211        6.1220   -1.8640   -1.3210 h1        1 7X3      0.042033
     45 H212        7.4520   -2.2920   -2.5210 h1        1 7X3      0.042033
     46 H213        7.6400   -0.8350   -1.4130 h1        1 7X3      0.042033
     47 H241       11.9140   -1.3170    0.6780 h1        1 7X3      0.047200
     48 H242       10.9980   -0.4220    1.9980 h1        1 7X3      0.047200
     49 H243       11.3770   -2.2090    2.1950 h1        1 7X3      0.047200
@<TRIPOS>BOND
     1    1    2 1   
     2    1   30 1   
     3    1   31 1   
     4    1   32 1   
     5    2    3 1   
     6    3    4 ar  
     7    3   28 ar  
     8    4    5 ar  
     9    4   33 1   
    10    5    6 ar  
    11    5   34 1   
    12    6    7 1   
    13    6   27 ar  
    14    7    8 1   
    15    7   35 1   
    16    8    9 ar  
    17    8   26 ar  
    18    9   10 ar  
    19   10   11 ar  
    20   10   37 1   
    21   11   12 ar  
    22   12   13 1   
    23   12   26 ar  
    24   13   14 1   
    25   13   38 1   
    26   14   15 ar  
    27   14   25 ar  
    28   15   16 ar  
    29   15   39 1   
    30   16   17 1   
    31   16   19 ar  
    32   17   18 1   
    33   18   41 1   
    34   18   42 1   
    35   18   43 1   
    36   19   20 1   
    37   19   22 ar  
    38   20   21 1   
    39   21   44 1   
    40   21   45 1   
    41   21   46 1   
    42   22   23 1   
    43   22   25 ar  
    44   23   24 1   
    45   24   47 1   
    46   24   48 1   
    47   24   49 1   
    48   25   40 1   
    49   27   28 ar  
    50   27   36 1   
    51   28   29 1   
@<TRIPOS>SUBSTRUCTURE
     1 7X3         1 TEMP              0 ****  ****    0 ROOT
