@<TRIPOS>MOLECULE
7X3
   49    51     1     0     0
SMALL
bcc


@<TRIPOS>ATOM
      1 C1          0.2450   -0.1690   -0.1920 c3        1 7X3      0.112700
      2 O2          1.6040    0.1810    0.0460 os        1 7X3     -0.310900
      3 C3          2.0000    0.2370    1.3670 ca        1 7X3      0.124100
      4 C4          1.1650   -0.0860    2.4440 ca        1 7X3     -0.187000
      5 C5          1.6390   -0.0120    3.7480 ca        1 7X3     -0.128000
      6 C6          2.9630    0.3990    4.0080 ca        1 7X3      0.111600
      7 N7          3.3920    0.5630    5.3430 nh        1 7X3     -0.720300
      8 C8          4.5220   -0.0550    5.8850 ca        1 7X3      0.918900
      9 N9          4.6840    0.0740    7.2690 nb        1 7X3     -0.810000
     10 C10         5.8390   -0.4470    7.7410 ca        1 7X3      0.708900
     11 N11         6.8130   -1.0750    7.0450 nb        1 7X3     -0.809000
     12 C12         6.5480   -1.2020    5.6760 ca        1 7X3      0.923900
     13 N13         7.4930   -1.9160    4.9370 nh        1 7X3     -0.725300
     14 C14         7.4790   -2.0470    3.5310 ca        1 7X3      0.197600
     15 C15         6.3690   -2.5920    2.8640 ca        1 7X3     -0.236500
     16 C16         6.4300   -2.8030    1.4810 ca        1 7X3      0.151600
     17 O17         5.3940   -3.3290    0.7380 os        1 7X3     -0.308900
     18 C18         4.2360   -3.7320    1.4620 c3        1 7X3      0.110200
     19 C19         7.5890   -2.4820    0.7460 ca        1 7X3      0.035100
     20 O20         7.7200   -2.8120   -0.5890 os        1 7X3     -0.309900
     21 C21         6.9560   -1.9790   -1.4640 c3        1 7X3      0.114700
     22 C22         8.6860   -1.9110    1.4270 ca        1 7X3      0.151600
     23 O23         9.7630   -1.5830    0.6300 os        1 7X3     -0.308900
     24 C24        10.9340   -1.1360    1.3040 c3        1 7X3      0.110200
     25 C25         8.6410   -1.7010    2.8070 ca        1 7X3     -0.236500
     26 N26         5.4180   -0.7020    5.0480 nb        1 7X3     -0.812000
     27 C27         3.8030    0.7230    2.9230 ca        1 7X3     -0.078000
     28 C28         3.3290    0.6430    1.6140 ca        1 7X3     -0.001600
     29 CL1         4.3850    1.0550    0.3490 cl        1 7X3     -0.064400
     30 H1C1       -0.4450    0.5650    0.2900 h1        1 7X3      0.047367
     31 H1C2        0.1610   -0.1170   -1.3080 h1        1 7X3      0.047367
     32 H1C3        0.0350   -1.2050    0.1700 h1        1 7X3      0.047367
     33 H4          0.1260   -0.4020    2.2710 ha        1 7X3      0.144000
     34 H5          0.9600   -0.2710    4.5760 ha        1 7X3      0.138000
     35 H7          2.6800    0.8230    5.9940 hn        1 7X3      0.454800
     36 H27         4.8440    1.0430    3.0990 ha        1 7X3      0.172000
     37 H10         6.0090   -0.3460    8.8360 h5        1 7X3      0.057100
     38 H13         8.3820   -2.0510    5.3740 hn        1 7X3      0.457800
     39 H15         5.4590   -2.8510    3.4230 ha        1 7X3      0.151000
     40 H25         9.5070   -1.2660    3.3260 ha        1 7X3      0.151000
     41 H181        3.7600   -2.8560    1.9640 h1        1 7X3      0.046700
     42 H182        4.4910   -4.5240    2.2070 h1        1 7X3      0.046700
     43 H183        3.5660   -4.1420    0.6630 h1        1 7X3      0.046700
     44 H211        7.1630   -2.4060   -2.4770 h1        1 7X3      0.042700
     45 H212        5.8690   -2.0470   -1.2160 h1        1 7X3      0.042700
     46 H213        7.3100   -0.9220   -1.3990 h1        1 7X3      0.042700
     47 H241       11.6710   -1.0000    0.4730 h1        1 7X3      0.046700
     48 H242       10.7430   -0.1640    1.8220 h1        1 7X3      0.046700
     49 H243       11.2950   -1.9040    2.0300 h1        1 7X3      0.046700
@<TRIPOS>BOND
     1    1    2 1   
     2    1   30 1   
     3    1   31 1   
     4    1   32 1   
     5    2    3 1   
     6    3    4 ar  
     7    3   28 ar  
     8    4    5 ar  
     9    4   33 1   
    10    5    6 ar  
    11    5   34 1   
    12    6    7 1   
    13    6   27 ar  
    14    7    8 1   
    15    7   35 1   
    16    8    9 ar  
    17    8   26 ar  
    18    9   10 ar  
    19   10   11 ar  
    20   10   37 1   
    21   11   12 ar  
    22   12   13 1   
    23   12   26 ar  
    24   13   14 1   
    25   13   38 1   
    26   14   15 ar  
    27   14   25 ar  
    28   15   16 ar  
    29   15   39 1   
    30   16   17 1   
    31   16   19 ar  
    32   17   18 1   
    33   18   41 1   
    34   18   42 1   
    35   18   43 1   
    36   19   20 1   
    37   19   22 ar  
    38   20   21 1   
    39   21   44 1   
    40   21   45 1   
    41   21   46 1   
    42   22   23 1   
    43   22   25 ar  
    44   23   24 1   
    45   24   47 1   
    46   24   48 1   
    47   24   49 1   
    48   25   40 1   
    49   27   28 ar  
    50   27   36 1   
    51   28   29 1   
@<TRIPOS>SUBSTRUCTURE
     1 7X3         1 TEMP              0 ****  ****    0 ROOT
