@<TRIPOS>MOLECULE
7X3
   49    51     1     0     0
SMALL
bcc


@<TRIPOS>ATOM
      1 C1          4.7990    7.8040   10.0730 c3        1 7X3      0.112700
      2 O2          5.9350    8.2190   10.8230 os        1 7X3     -0.310900
      3 C3          6.8270    7.2290   11.1830 ca        1 7X3      0.124100
      4 C4          6.6960    5.8880   10.8010 ca        1 7X3     -0.187000
      5 C5          7.6410    4.9490   11.1970 ca        1 7X3     -0.128000
      6 C6          8.7380    5.3300   11.9980 ca        1 7X3      0.111600
      7 N7          9.6300    4.3430   12.4710 nh        1 7X3     -0.720300
      8 C8         11.0140    4.3820   12.2840 ca        1 7X3      0.918900
      9 N9         11.7140    3.2280   12.6560 nb        1 7X3     -0.810000
     10 C10        13.0580    3.3410   12.5570 ca        1 7X3      0.708900
     11 N11        13.7730    4.4060   12.1340 nb        1 7X3     -0.809000
     12 C12        12.9930    5.4990   11.7360 ca        1 7X3      0.923900
     13 N13        13.6930    6.5890   11.2160 nh        1 7X3     -0.725300
     14 C14        13.1080    7.8300   10.8800 ca        1 7X3      0.197600
     15 C15        12.0560    7.9100    9.9520 ca        1 7X3     -0.236500
     16 C16        11.5710    9.1650    9.5640 ca        1 7X3      0.151600
     17 O17        10.5420    9.3460    8.6640 os        1 7X3     -0.308900
     18 C18        10.0120    8.1690    8.0620 c3        1 7X3      0.110200
     19 C19        12.1230   10.3520   10.0870 ca        1 7X3      0.035100
     20 O20        11.7550   11.5960    9.6130 os        1 7X3     -0.309900
     21 C21        10.4650   12.0220   10.0580 c3        1 7X3      0.114700
     22 C22        13.1610   10.2540   11.0380 ca        1 7X3      0.151600
     23 O23        13.6160   11.4580   11.5350 os        1 7X3     -0.308900
     24 C24        14.7530   11.4000   12.3890 c3        1 7X3      0.110200
     25 C25        13.6600    9.0090   11.4290 ca        1 7X3     -0.236500
     26 N26        11.6080    5.5360   11.7990 nb        1 7X3     -0.812000
     27 C27         8.8690    6.6790   12.3820 ca        1 7X3     -0.078000
     28 C28         7.9240    7.6230   11.9790 ca        1 7X3     -0.001600
     29 CL1         8.1300    9.2330   12.4800 cl        1 7X3     -0.064400
     30 H1C1        4.1950    7.0590   10.6460 h1        1 7X3      0.047367
     31 H1C2        4.2250    8.7560    9.9340 h1        1 7X3      0.047367
     32 H1C3        5.1100    7.3840    9.0850 h1        1 7X3      0.047367
     33 H4          5.8480    5.5630   10.1820 ha        1 7X3      0.144000
     34 H5          7.5140    3.9020   10.8830 ha        1 7X3      0.138000
     35 H7          9.2320    3.4370   12.6130 hn        1 7X3      0.454800
     36 H27         9.7200    7.0030   13.0050 ha        1 7X3      0.172000
     37 H10        13.6460    2.4470   12.8620 h5        1 7X3      0.057100
     38 H13        14.6740    6.6110   11.4030 hn        1 7X3      0.457800
     39 H15        11.6170    6.9940    9.5320 ha        1 7X3      0.151000
     40 H25        14.4770    8.9480   12.1620 ha        1 7X3      0.151000
     41 H181        9.2310    8.5680    7.3670 h1        1 7X3      0.046700
     42 H182       10.8050    7.6250    7.4940 h1        1 7X3      0.046700
     43 H183        9.5530    7.5040    8.8330 h1        1 7X3      0.046700
     44 H211       10.4550   12.1280   11.1690 h1        1 7X3      0.042700
     45 H212       10.3330   13.0150    9.5620 h1        1 7X3      0.042700
     46 H213        9.6810   11.3000    9.7250 h1        1 7X3      0.042700
     47 H241       15.6180   10.9210   11.8700 h1        1 7X3      0.046700
     48 H242       14.9670   12.4790   12.6020 h1        1 7X3      0.046700
     49 H243       14.5090   10.8540   13.3320 h1        1 7X3      0.046700
@<TRIPOS>BOND
     1    1    2 1   
     2    1   30 1   
     3    1   31 1   
     4    1   32 1   
     5    2    3 1   
     6    3    4 ar  
     7    3   28 ar  
     8    4    5 ar  
     9    4   33 1   
    10    5    6 ar  
    11    5   34 1   
    12    6    7 1   
    13    6   27 ar  
    14    7    8 1   
    15    7   35 1   
    16    8    9 ar  
    17    8   26 ar  
    18    9   10 ar  
    19   10   11 ar  
    20   10   37 1   
    21   11   12 ar  
    22   12   13 1   
    23   12   26 ar  
    24   13   14 1   
    25   13   38 1   
    26   14   15 ar  
    27   14   25 ar  
    28   15   16 ar  
    29   15   39 1   
    30   16   17 1   
    31   16   19 ar  
    32   17   18 1   
    33   18   41 1   
    34   18   42 1   
    35   18   43 1   
    36   19   20 1   
    37   19   22 ar  
    38   20   21 1   
    39   21   44 1   
    40   21   45 1   
    41   21   46 1   
    42   22   23 1   
    43   22   25 ar  
    44   23   24 1   
    45   24   47 1   
    46   24   48 1   
    47   24   49 1   
    48   25   40 1   
    49   27   28 ar  
    50   27   36 1   
    51   28   29 1   
@<TRIPOS>SUBSTRUCTURE
     1 7X3         1 TEMP              0 ****  ****    0 ROOT
