@<TRIPOS>MOLECULE
7X4
   43    43     1     0     0
SMALL
bcc


@<TRIPOS>ATOM
      1 C11         0.2130    0.8510   -0.8300 cz        1 7X4      0.240000
      2 N12         1.5750    1.0240   -0.8180 na        1 7X4     -0.234000
      3 C13         2.2180    1.0500    0.4300 c2        1 7X4     -0.019000
      4 C14         1.5460    0.8760    1.5890 c2        1 7X4     -0.178000
      5 C15         0.0890    0.6270    1.6490 c2        1 7X4      0.144000
      6 N16        -0.6530    0.3600    2.6820 n2        1 7X4     -0.077000
      7 C17        -0.2160    0.3040    4.0020 c2        1 7X4     -0.074000
      8 C18         0.4790    1.2640    4.7220 c2        1 7X4      0.059000
      9 O19         1.0750    2.2890    4.0390 oh        1 7X4     -0.251000
     10 C20         2.4600    0.0500    7.2310 c1        1 7X4      0.003000
     11 O21         2.0380    1.0160    6.5440 os        1 7X4     -0.061000
     12 C22         0.6160    1.2840    6.2350 c3        1 7X4     -0.090000
     13 C23        -0.4160    0.3930    6.8720 c2        1 7X4     -0.139000
     14 C24        -0.7500   -0.6050    6.0780 c1        1 7X4     -0.126000
     15 C25        -0.5490   -0.9100    4.7970 c2        1 7X4      0.012000
     16 CL2        -0.4740   -2.4280    4.1100 cl        1 7X4      0.071000
     17 N27        -0.5690    0.6640    0.3650 na        1 7X4     -0.149000
     18 N1         -2.7160   -1.5190   -5.2050 n3        1 7X4     -0.484000
     19 O3         -1.3080    0.7980   -4.6650 o         1 7X4     -0.502900
     20 O4         -3.3240    1.0420   -5.8980 o         1 7X4     -0.502900
     21 C5         -3.4590    0.6450   -3.4670 c2        1 7X4     -1.347000
     22 C6         -6.2610   -0.0080    0.4690 c1        1 7X4     -0.232000
     23 C7         -5.1050    0.0920    0.7630 c1        1 7X4     -0.232000
     24 C8         -1.9040    0.5310    0.0550 c1        1 7X4      0.145000
     25 C9         -1.9670    0.6350   -1.4230 c2        1 7X4     -0.301000
     26 N10        -0.6290    0.8230   -1.9140 nh        1 7X4     -0.206000
     27 C28        -3.1590    0.5730   -2.0960 c2        1 7X4      0.234000
     28 H10        -0.3510    0.9380   -2.8650 hn        1 7X4      0.310000
     29 H13         2.0870    1.1640   -1.6620 hn        1 7X4      0.286000
     30 H14         3.3100    1.2210    0.3720 h4        1 7X4      0.196000
     31 H16         2.0760    0.9170    2.5570 ha        1 7X4      0.204000
     32 H201        1.4860    2.8910    4.6810 ho        1 7X4      0.250000
     33 H202        1.8100   -0.7250    7.6800 ha        1 7X4      0.079000
     34 H23         0.4500    2.3340    6.6100 h1        1 7X4      0.153000
     35 H24        -0.8930    0.6940    7.8100 ha        1 7X4      0.182000
     36 H1N1       -3.1840   -1.6370   -6.0870 hn        1 7X4      0.199667
     37 H1N2       -1.7790   -1.8720   -5.2820 hn        1 7X4      0.199667
     38 H6         -7.2890   -0.0970    0.2230 ha        1 7X4      0.232500
     39 H28        -4.5770    0.6640   -3.5790 h4        1 7X4      0.237000
     40 H7         -4.0390    0.4530   -1.4120 ha        1 7X4      0.195000
     41 H8         -4.0790    0.1810    1.0430 ha        1 7X4      0.232500
     42 H131       -3.2080   -2.0360   -4.4990 hn        1 7X4      0.199667
     43 S2         -2.6840    0.7180   -4.7330 s4        1 7X4      2.139800
@<TRIPOS>BOND
     1    1    2 1   
     2    1   17 1   
     3    1   26 1   
     4    2    3 1   
     5    2   29 1   
     6    3    4 1   
     7    3   30 1   
     8    4    5 1   
     9    4   31 1   
    10    5    6 1   
    11    5   17 1   
    12    6    7 1   
    13    7    8 1   
    14    7   15 1   
    15    8    9 1   
    16    8   12 1   
    17    9   32 1   
    18   10   11 1   
    19   10   33 1   
    20   11   12 1   
    21   12   13 1   
    22   12   34 1   
    23   13   14 1   
    24   13   35 1   
    25   14   15 1   
    26   15   16 1   
    27   17   24 1   
    28   18   36 1   
    29   18   37 1   
    30   18   42 1   
    31   19   43 1   
    32   20   43 1   
    33   21   27 1   
    34   21   39 1   
    35   21   43 1   
    36   22   23 1   
    37   22   38 1   
    38   23   41 1   
    39   24   25 1   
    40   25   26 1   
    41   25   27 1   
    42   26   28 1   
    43   27   40 1   
@<TRIPOS>SUBSTRUCTURE
     1 7X4         1 TEMP              0 ****  ****    0 ROOT
