@<TRIPOS>MOLECULE
7X4
   42    38     1     0     0
SMALL
bcc


@<TRIPOS>ATOM
      1 C11         0.6680    2.0420   -0.7400 c1        1 7X4      0.172000
      2 N12         1.9150    2.3540   -0.7600 n1        1 7X4     -0.232000
      3 C13         2.5940    2.4960    0.3980 c1        1 7X4     -0.151000
      4 C14         1.9890    2.3180    1.5340 c1        1 7X4     -0.151000
      5 C15         0.7230    2.0020    1.5590 c1        1 7X4      0.177000
      6 N16         0.0150    1.9260    2.8510 n3        1 7X4     -0.221000
      7 C17        -0.1080    0.6470    3.5440 c2        1 7X4      0.070000
      8 C18        -1.3620    0.0630    3.6900 c2        1 7X4     -0.025000
      9 O19        -2.6960    0.5330    3.3290 os        1 7X4     -0.225000
     10 C20        -3.6250   -0.4120    3.7570 c3        1 7X4      0.103000
     11 O21        -2.8910   -1.5140    4.3510 os        1 7X4     -0.213000
     12 C22        -1.4890   -1.1840    4.3100 c2        1 7X4      0.028000
     13 C23        -0.3170   -1.8630    4.7970 c2        1 7X4     -0.109000
     14 C24         0.9210   -1.2880    4.6540 c1        1 7X4     -0.119000
     15 C25         1.0470   -0.0270    4.0270 c1        1 7X4     -0.044000
     16 CL2         2.5890    0.7270    3.9290 cl        1 7X4      0.013000
     17 N27         0.0510    1.8610    0.4170 n1        1 7X4     -0.255000
     18 N1         -0.2930   -3.8430   -3.6460 n3        1 7X4     -0.953000
     19 S2         -1.0730   -2.4960   -4.2790 s4        1 7X4      2.081800
     20 O3         -1.4140   -2.7060   -5.7020 o         1 7X4     -0.545900
     21 O4         -2.3080   -2.3270   -3.7400 o         1 7X4     -0.545900
     22 C5         -0.0850   -1.0680   -4.0480 c1        1 7X4     -0.813000
     23 C6          0.9070   -0.8160   -4.8730 c2        1 7X4     -0.029000
     24 C7          1.6110    0.4360   -4.7860 c1        1 7X4     -0.149000
     25 C8          1.2430    1.3710   -3.8330 c1        1 7X4     -0.042000
     26 C9          0.2250    1.1080   -2.9870 c1        1 7X4      0.025000
     27 N10        -0.0980    2.0200   -1.9870 n2        1 7X4     -0.227000
     28 C28        -0.4580   -0.1040   -3.0710 c2        1 7X4     -0.057000
     29 H10        -0.8480    2.5830   -2.0900 hn        1 7X4      0.238000
     30 H13         3.5120    2.7250    0.3850 ha        1 7X4      0.161000
     31 H14         2.4660    2.4180    2.3400 ha        1 7X4      0.161000
     32 H16        -0.3910    2.6610    3.1890 hn        1 7X4      0.231000
     33 H201       -4.1450   -0.7520    2.9570 h2        1 7X4      0.115500
     34 H202       -4.2110   -0.0040    4.4370 h2        1 7X4      0.115500
     35 H23        -0.4070   -2.7860    5.2520 ha        1 7X4      0.163000
     36 H24         1.7080   -1.7450    4.9810 ha        1 7X4      0.157000
     37 H1N1       -0.2330   -3.9570   -2.6780 hn        1 7X4      0.243000
     38 H1N2        0.1760   -4.4600   -4.2390 hn        1 7X4      0.243000
     39 H6          1.1700   -1.4930   -5.5570 ha        1 7X4      0.153000
     40 H28        -1.2350   -0.3070   -2.4220 ha        1 7X4      0.154000
     41 H7          2.4410    0.6510   -5.4750 ha        1 7X4      0.143000
     42 H8          1.7130    2.2090   -3.7730 ha        1 7X4      0.160000
@<TRIPOS>BOND
     1    1    2 1   
     2    1   27 1   
     3    3    4 1   
     4    3   30 1   
     5    4   31 1   
     6    5    6 1   
     7    5   17 1   
     8    6    7 1   
     9    6   32 1   
    10    7    8 1   
    11    7   15 1   
    12    8    9 1   
    13    8   12 1   
    14    9   10 1   
    15   10   11 1   
    16   10   33 1   
    17   10   34 1   
    18   11   12 1   
    19   12   13 1   
    20   13   14 1   
    21   13   35 1   
    22   14   36 1   
    23   15   16 1   
    24   18   19 1   
    25   18   37 1   
    26   18   38 1   
    27   19   20 1   
    28   19   21 1   
    29   22   23 1   
    30   22   28 1   
    31   23   24 1   
    32   23   39 1   
    33   24   41 1   
    34   25   26 1   
    35   25   42 1   
    36   26   28 1   
    37   27   29 1   
    38   28   40 1   
@<TRIPOS>SUBSTRUCTURE
     1 7X4         1 TEMP              0 ****  ****    0 ROOT
