@<TRIPOS>MOLECULE
7X4
   42    45     1     0     0
SMALL
bcc


@<TRIPOS>ATOM
      1 C11        13.2880    6.1640   11.4940 ca        1 7X4      0.886900
      2 N12        14.1430    5.1480   11.9130 nb        1 7X4     -0.761000
      3 C13        13.5550    4.0980   12.5020 ca        1 7X4      0.479200
      4 C14        12.1750    3.9920   12.7230 ca        1 7X4     -0.431600
      5 C15        11.3700    5.0830   12.2910 ca        1 7X4      0.704200
      6 N16         9.9870    5.1320   12.5570 nh        1 7X4     -0.708300
      7 C17         9.2400    3.9450   12.6810 ca        1 7X4      0.137600
      8 C18         9.2720    3.1510   13.8260 ca        1 7X4      0.064100
      9 O19        10.0600    3.3030   14.9610 os        1 7X4     -0.316900
     10 C20         9.7040    2.2310   15.8670 c3        1 7X4      0.317200
     11 O21         8.6970    1.4220   15.2150 os        1 7X4     -0.328900
     12 C22         8.4460    2.0060   13.9800 ca        1 7X4      0.069100
     13 C23         7.5510    1.6040   13.0120 ca        1 7X4     -0.110000
     14 C24         7.4990    2.3920   11.8500 ca        1 7X4     -0.111000
     15 C25         8.3090    3.5110   11.6840 ca        1 7X4     -0.015600
     16 CL2         8.1750    4.4020   10.2400 cl        1 7X4     -0.078400
     17 N27        11.9200    6.1710   11.6600 nb        1 7X4     -0.791000
     18 N1         14.9860   12.7900   10.2780 n3        1 7X4     -1.026700
     19 O3         15.0090   11.9000   12.5680 o         1 7X4     -0.657300
     20 O4         13.1530   13.2660   11.8420 o         1 7X4     -0.657300
     21 C5         13.3450   10.9140   10.9480 ca        1 7X4     -0.367500
     22 C6         12.1130   11.0220   10.2970 ca        1 7X4     -0.031000
     23 C7         11.4650    9.8870    9.8190 ca        1 7X4     -0.149000
     24 C8         12.0310    8.6260    9.9830 ca        1 7X4     -0.046000
     25 C9         13.2630    8.4880   10.6590 ca        1 7X4      0.106600
     26 N10        13.8960    7.2280   10.7790 nh        1 7X4     -0.703300
     27 C28        13.9050    9.6490   11.1370 ca        1 7X4     -0.058000
     28 H10        14.8870    7.2880   10.9210 hn        1 7X4      0.437800
     29 H13        14.2400    3.2920   12.8250 h4        1 7X4      0.028100
     30 H14        11.7460    3.1220   13.2320 ha        1 7X4      0.164000
     31 H16         9.4870    5.8750   12.1030 hn        1 7X4      0.443800
     32 H201       10.6090    1.6000   16.0450 h2        1 7X4      0.079200
     33 H202        9.2630    2.6770   16.7920 h2        1 7X4      0.079200
     34 H23         6.9120    0.7210   13.1370 ha        1 7X4      0.166000
     35 H24         6.7960    2.1060   11.0500 ha        1 7X4      0.158000
     36 H1N1       14.6520   13.4370    9.6100 hn        1 7X4      0.447800
     37 H1N2       15.9140   12.5000   10.0990 hn        1 7X4      0.447800
     38 H6         11.6470   12.0160   10.1790 ha        1 7X4      0.152000
     39 H28        14.8630    9.5720   11.6850 ha        1 7X4      0.155000
     40 H7         10.4960    9.9830    9.3060 ha        1 7X4      0.142000
     41 H8         11.5090    7.7400    9.5860 ha        1 7X4      0.158000
     42 S2         14.1290   12.2940   11.5380 sy        1 7X4      1.526200
@<TRIPOS>BOND
     1    1    2 ar  
     2    1   17 ar  
     3    1   26 1   
     4    2    3 ar  
     5    3    4 ar  
     6    3   29 1   
     7    4    5 ar  
     8    4   30 1   
     9    5    6 1   
    10    5   17 ar  
    11    6    7 1   
    12    6   31 1   
    13    7    8 ar  
    14    7   15 ar  
    15    8    9 1   
    16    8   12 ar  
    17    9   10 1   
    18   10   11 1   
    19   10   32 1   
    20   10   33 1   
    21   11   12 1   
    22   12   13 ar  
    23   13   14 ar  
    24   13   34 1   
    25   14   15 ar  
    26   14   35 1   
    27   15   16 1   
    28   18   36 1   
    29   18   37 1   
    30   18   42 1   
    31   19   42 2   
    32   20   42 2   
    33   21   22 ar  
    34   21   27 ar  
    35   21   42 1   
    36   22   23 ar  
    37   22   38 1   
    38   23   24 ar  
    39   23   40 1   
    40   24   25 ar  
    41   24   41 1   
    42   25   26 1   
    43   25   27 ar  
    44   26   28 1   
    45   27   39 1   
@<TRIPOS>SUBSTRUCTURE
     1 7X4         1 TEMP              0 ****  ****    0 ROOT
