@<TRIPOS>MOLECULE
7X4
   43    42     1     0     0
SMALL
bcc


@<TRIPOS>ATOM
      1 C11         0.7890   -0.9480   -0.8090 cz        1 7X4      0.262000
      2 N12         2.1390   -1.0300   -0.6310 na        1 7X4     -0.214000
      3 C13         2.6670   -0.7790    0.6500 c2        1 7X4     -0.026000
      4 C14         1.8790   -0.4820    1.7040 c2        1 7X4     -0.166000
      5 C15         0.4020   -0.4150    1.6110 c2        1 7X4      0.155000
      6 N16        -0.4540   -0.2000    2.5620 n2        1 7X4     -0.085000
      7 C17        -0.0780    0.0320    3.9020 c2        1 7X4     -0.021000
      8 C18         0.4140    1.3870    4.2440 c2        1 7X4      0.072000
      9 O19         1.6550    1.6450    3.7050 oh        1 7X4     -0.279000
     10 C20        -0.2580    4.4590    5.8900 c1        1 7X4      0.018000
     11 O21         0.3040    3.5360    5.2090 os        1 7X4     -0.060000
     12 C22        -0.2970    2.2710    4.9700 c2        1 7X4     -0.217000
     13 C23         0.1640   -0.5080    7.4100 c1        1 7X4     -0.090000
     14 C24        -0.0450   -0.6630    6.2400 c1        1 7X4     -0.188000
     15 C25        -0.2950   -0.8940    4.8810 c2        1 7X4      0.078000
     16 Cl2        -0.8780   -2.4490    4.5130 cl        1 7X4      0.034000
     17 N27        -0.1240   -0.6280    0.2810 na        1 7X4     -0.167000
     18 N1         -3.9860    0.6220   -5.1620 n9        1 7X4     -0.480000
     19 O3         -2.2830    2.5160   -4.2250 o         1 7X4     -0.479400
     20 O4         -4.4780    2.6070   -3.3830 o         1 7X4     -0.479400
     21 C5         -3.0180    0.8130   -2.4960 c2        1 7X4     -1.147000
     22 C6         -5.6960    0.7340    0.4440 c1        1 7X4     -0.229500
     23 C7         -4.5760    0.3500    0.6190 c1        1 7X4     -0.229500
     24 C8         -1.4130   -0.6050   -0.1450 c1        1 7X4      0.156000
     25 C9         -1.3890   -0.9270   -1.6530 c3        1 7X4     -0.072000
     26 N10         0.0640   -1.2250   -1.9400 nu        1 7X4     -0.243000
     27 C28        -1.8670    0.1110   -2.5430 c1        1 7X4     -0.206000
     28 H10         0.4180   -1.0950   -2.8650 hn        1 7X4      0.289000
     29 H13         2.7470   -1.2700   -1.3870 hn        1 7X4      0.293000
     30 H14         3.7720   -0.8410    0.7040 h4        1 7X4      0.203000
     31 H16         2.3130   -0.2520    2.6960 ha        1 7X4      0.222000
     32 H201        1.9390    2.5270    4.0000 ho        1 7X4      0.255000
     33 H202       -1.2640    4.3080    6.3380 ha        1 7X4      0.042000
     34 H23        -1.2900    2.1000    5.3970 h4        1 7X4      0.174000
     35 H24         0.3500   -0.3690    8.4480 ha        1 7X4      0.244000
     36 H1N1       -3.4160    0.7950   -5.9720 hn        1 7X4      0.204667
     37 H1N2       -4.9440    0.8430   -5.3760 hn        1 7X4      0.204667
     38 H6         -6.6900    1.0760    0.2970 ha        1 7X4      0.229500
     39 H28        -3.7680    0.6040   -1.6960 h4        1 7X4      0.201000
     40 H7         -1.9610   -1.8930   -1.8260 h1        1 7X4      0.198000
     41 H8         -3.5810    0.0080    0.7870 ha        1 7X4      0.229500
     42 H131       -3.9150   -0.3450   -4.9050 hn        1 7X4      0.204667
     43 S2         -3.2890    1.9350   -3.5030 s4        1 7X4      2.110800
@<TRIPOS>BOND
     1    1    2 1   
     2    1   17 1   
     3    1   26 1   
     4    2    3 1   
     5    2   29 1   
     6    3    4 1   
     7    3   30 1   
     8    4    5 1   
     9    4   31 1   
    10    5    6 1   
    11    5   17 1   
    12    6    7 1   
    13    7    8 1   
    14    7   15 1   
    15    8    9 1   
    16    8   12 1   
    17    9   32 1   
    18   10   11 1   
    19   10   33 1   
    20   11   12 1   
    21   12   34 1   
    22   13   14 1   
    23   13   35 1   
    24   14   15 1   
    25   15   16 1   
    26   17   24 1   
    27   18   36 1   
    28   18   37 1   
    29   18   42 1   
    30   19   43 1   
    31   20   43 1   
    32   21   27 1   
    33   21   39 1   
    34   21   43 1   
    35   22   23 1   
    36   22   38 1   
    37   23   41 1   
    38   24   25 1   
    39   25   26 1   
    40   25   27 1   
    41   25   40 1   
    42   26   28 1   
@<TRIPOS>SUBSTRUCTURE
     1 7X4         1 TEMP              0 ****  ****    0 ROOT
