@<TRIPOS>MOLECULE
7X4
   42    43     1     0     0
SMALL
bcc


@<TRIPOS>ATOM
      1 C11         1.2800   -0.0350   -0.8100 c2        1 7X4      0.088000
      2 N12         2.6070   -0.1850   -0.3860 na        1 7X4     -0.235000
      3 C13         2.8720   -0.1490    0.9640 c2        1 7X4      0.057000
      4 C14         1.8960   -0.0350    1.9090 c2        1 7X4     -0.290000
      5 C15         0.4720    0.0720    1.5570 c2        1 7X4      0.268000
      6 N16        -0.5570    0.0910    2.3650 n2        1 7X4     -0.245000
      7 C17        -0.5180    0.1190    3.7470 c2        1 7X4      0.164000
      8 C18         0.1230    1.2320    4.4840 c2        1 7X4      0.039000
      9 O19         0.8950    2.0570    3.7180 oh        1 7X4     -0.288000
     10 C20         1.2000    3.2990    6.0440 c1        1 7X4     -0.101000
     11 O21         0.4680    2.3810    6.6300 os        1 7X4     -0.100000
     12 C22        -0.0720    1.3560    5.8290 c2        1 7X4     -0.096000
     13 C23        -0.8840    0.4070    6.6270 c3        1 7X4     -0.156000
     14 C24        -1.4370   -0.7130    5.8890 c1        1 7X4     -0.076000
     15 C25        -1.2200   -0.8220    4.5040 c2        1 7X4     -0.175000
     16 CL2        -1.8960   -2.1860    3.7420 cl        1 7X4      0.013000
     17 N27         0.2220    0.0960    0.1630 na        1 7X4     -0.139000
     18 N1         -4.3370   -1.0300   -4.5720 n3        1 7X4     -0.953000
     19 O3         -3.3680    1.1290   -5.2370 o         1 7X4     -0.947000
     20 O4         -5.1020    1.0770   -3.5530 o         1 7X4     -0.947000
     21 C5         -2.8390    0.2690   -2.9330 c2        1 7X4     -0.974000
     22 C6         -4.9260    1.0320   -0.3230 c1        1 7X4     -0.234500
     23 C7         -4.3590    0.6940    0.6750 c1        1 7X4     -0.234500
     24 C8         -0.9620    0.2160   -0.5620 c2        1 7X4     -0.047000
     25 C9         -0.6060    0.1640   -1.9270 c2        1 7X4     -0.133000
     26 N10         0.7910    0.0090   -2.0770 n2        1 7X4     -0.131000
     27 C28        -1.5030    0.2650   -3.0530 c2        1 7X4      0.136000
     28 H10        -1.0230    0.3570   -4.0490 ha        1 7X4      0.158000
     29 H13         3.3220   -0.2380   -1.0740 hn        1 7X4      0.281000
     30 H14         3.9420   -0.2300    1.2350 h4        1 7X4      0.170000
     31 H16         2.1450    0.0210    2.9780 ha        1 7X4      0.181000
     32 H201        1.2010    2.8210    4.2800 ho        1 7X4      0.289000
     33 H202        1.5340    4.0300    6.8160 ha        1 7X4      0.078000
     34 H23        -0.2660   -0.0060    7.4790 hc        1 7X4      0.170500
     35 H24        -1.7510    0.9530    7.1100 hc        1 7X4      0.170500
     36 H1N1       -3.9090   -1.5010   -5.3280 hn        1 7X4      0.242000
     37 H1N2       -5.0340   -1.5720   -4.1280 hn        1 7X4      0.242000
     38 H6         -5.4200    1.3310   -1.2220 ha        1 7X4      0.236000
     39 H28        -3.2720    0.1820   -1.9150 h4        1 7X4      0.183000
     40 H7         -1.9350    0.3360   -0.0730 h4        1 7X4      0.221000
     41 H8         -3.8690    0.3970    1.5690 ha        1 7X4      0.236000
     42 S2         -3.9670    0.4700   -4.1420 s6        1 7X4      2.877000
@<TRIPOS>BOND
     1    1    2 1   
     2    1   17 1   
     3    1   26 1   
     4    2    3 1   
     5    2   29 1   
     6    3    4 1   
     7    3   30 1   
     8    4    5 1   
     9    4   31 1   
    10    5    6 1   
    11    5   17 1   
    12    6    7 1   
    13    7    8 1   
    14    7   15 1   
    15    8    9 1   
    16    8   12 1   
    17    9   32 1   
    18   10   11 1   
    19   10   33 1   
    20   11   12 1   
    21   12   13 1   
    22   13   14 1   
    23   13   34 1   
    24   13   35 1   
    25   14   15 1   
    26   15   16 1   
    27   17   24 1   
    28   18   36 1   
    29   18   37 1   
    30   18   42 1   
    31   19   42 1   
    32   20   42 1   
    33   21   27 1   
    34   21   39 1   
    35   21   42 1   
    36   22   23 1   
    37   22   38 1   
    38   23   41 1   
    39   24   25 1   
    40   24   40 1   
    41   25   26 1   
    42   25   27 1   
    43   27   28 1   
@<TRIPOS>SUBSTRUCTURE
     1 7X4         1 TEMP              0 ****  ****    0 ROOT
