@<TRIPOS>MOLECULE
7X5
   43    46     1     0     0
SMALL
bcc


@<TRIPOS>ATOM
      1 N1         13.6670    7.3130   10.8740 nh        1 7X5     -0.707300
      2 C7         13.1550    6.2130   11.6100 ca        1 7X5      0.882900
      3 N2         14.0920    5.2810   12.0470 nb        1 7X5     -0.763000
      4 C8         13.5910    4.1930   12.6490 ca        1 7X5      0.476200
      5 C9         12.2250    3.9730   12.8670 ca        1 7X5     -0.430600
      6 C10        11.3300    4.9890   12.4230 ca        1 7X5      0.707200
      7 N3          9.9490    4.9290   12.6850 nh        1 7X5     -0.706300
      8 C11         9.2980    3.6870   12.8140 ca        1 7X5      0.137600
      9 C12         9.3980    2.8970   13.9590 ca        1 7X5      0.062100
     10 O3         10.1790    3.1080   15.0900 os        1 7X5     -0.319900
     11 C13         9.9120    2.0120   15.9960 c3        1 7X5      0.318200
     12 O4          8.9690    1.1270   15.3490 os        1 7X5     -0.329900
     13 C14         8.6660    1.6920   14.1150 ca        1 7X5      0.067100
     14 C15         7.7980    1.2220   13.1530 ca        1 7X5     -0.109000
     15 C16         7.6780    2.0050   11.9920 ca        1 7X5     -0.113000
     16 C17         8.3960    3.1850   11.8220 ca        1 7X5     -0.016600
     17 CL1         8.1810    4.0680   10.3860 cl        1 7X5     -0.060400
     18 N4         11.7930    6.1110   11.7810 nb        1 7X5     -0.788000
     19 C1         10.0480    9.6000    7.3390 c3        1 7X5     -0.357300
     20 O1          8.7770   10.7700    9.1820 o         1 7X5     -0.657800
     21 O2          8.8400    8.3750    9.1840 o         1 7X5     -0.657800
     22 C2         10.9680    9.6400    9.7460 ca        1 7X5     -0.374500
     23 C3         11.4820   10.8610   10.2010 ca        1 7X5     -0.035000
     24 C4         12.6940   10.9060   10.8820 ca        1 7X5     -0.139000
     25 C5         13.4050    9.7360   11.1330 ca        1 7X5     -0.106000
     26 C6         12.9050    8.4910   10.6920 ca        1 7X5      0.111600
     27 C18        11.6810    8.4640    9.9930 ca        1 7X5      0.001000
     28 H1         14.6430    7.4810   11.0280 hn        1 7X5      0.436800
     29 H8         14.3410    3.4510   12.9850 h4        1 7X5      0.028100
     30 H9         11.8690    3.0740   13.3810 ha        1 7X5      0.165000
     31 H3          9.3920    5.6270   12.2230 hn        1 7X5      0.451800
     32 H131       10.8640    1.4540   16.1700 h2        1 7X5      0.077200
     33 H132        9.4410    2.4220   16.9240 h2        1 7X5      0.077200
     34 H15         7.2300    0.2910   13.2810 ha        1 7X5      0.164000
     35 H16         6.9920    1.6670   11.1980 ha        1 7X5      0.158000
     36 H1C1       10.5760   10.5450    7.0650 h1        1 7X5      0.114033
     37 H1C2       10.7510    8.7620    7.1120 h1        1 7X5      0.114033
     38 H1C3        9.1950    9.4980    6.6200 h1        1 7X5      0.114033
     39 HA         10.9090   11.7880   10.0270 ha        1 7X5      0.159000
     40 H18        11.2600    7.5040    9.6400 ha        1 7X5      0.171000
     41 H4         13.0910   11.8700   11.2350 ha        1 7X5      0.144000
     42 H5         14.3610    9.7920   11.6780 ha        1 7X5      0.139000
     43 S1          9.4970    9.5900    8.9410 sy        1 7X5      1.397300
@<TRIPOS>BOND
     1    1    2 1   
     2    1   26 1   
     3    1   28 1   
     4    2    3 ar  
     5    2   18 ar  
     6    3    4 ar  
     7    4    5 ar  
     8    4   29 1   
     9    5    6 ar  
    10    5   30 1   
    11    6    7 1   
    12    6   18 ar  
    13    7    8 1   
    14    7   31 1   
    15    8    9 ar  
    16    8   16 ar  
    17    9   10 1   
    18    9   13 ar  
    19   10   11 1   
    20   11   12 1   
    21   11   32 1   
    22   11   33 1   
    23   12   13 1   
    24   13   14 ar  
    25   14   15 ar  
    26   14   34 1   
    27   15   16 ar  
    28   15   35 1   
    29   16   17 1   
    30   19   36 1   
    31   19   37 1   
    32   19   38 1   
    33   19   43 1   
    34   20   43 2   
    35   21   43 2   
    36   22   23 ar  
    37   22   27 ar  
    38   22   43 1   
    39   23   24 ar  
    40   23   39 1   
    41   24   25 ar  
    42   24   41 1   
    43   25   26 ar  
    44   25   42 1   
    45   26   27 ar  
    46   27   40 1   
@<TRIPOS>SUBSTRUCTURE
     1 7X5         1 TEMP              0 ****  ****    0 ROOT
