@<TRIPOS>MOLECULE
7X5
   43    43     1     0     0
SMALL
bcc


@<TRIPOS>ATOM
      1 N1         -0.0990    0.3690    0.1660 n2        1 7X5     -0.119000
      2 C7          1.3100    0.0480    0.2320 c2        1 7X5      0.198000
      3 N2          1.7470   -0.3370    1.5220 na        1 7X5     -0.266000
      4 C8          3.0970   -0.5540    1.7100 c2        1 7X5      0.029000
      5 C9          3.9810   -0.4510    0.6810 c2        1 7X5     -0.308000
      6 C10         3.5070   -0.0570   -0.6610 c2        1 7X5      0.128000
      7 N3          4.2680    0.1170   -1.7210 n2        1 7X5     -0.204000
      8 C11         5.6460   -0.0890   -1.6950 c2        1 7X5     -0.059000
      9 C12         6.3200   -1.2730   -1.4620 c2        1 7X5     -0.038000
     10 O3          5.7420   -2.4200   -0.9770 oh        1 7X5     -0.256000
     11 C13         8.1680   -1.6770    0.6720 c1        1 7X5     -0.027000
     12 O4          8.6090   -1.4840   -0.4950 os        1 7X5     -0.048000
     13 C14         7.8000   -1.5110   -1.7240 c3        1 7X5     -0.025000
     14 C15         8.3020   -0.4970   -2.7230 c2        1 7X5     -0.084000
     15 C16         7.6620    0.6510   -2.6090 c1        1 7X5     -0.157000
     16 C17         6.5510    1.0560   -1.9960 c2        1 7X5      0.006000
     17 Cl1         6.2030    2.5900   -1.4310 cl        1 7X5      0.050000
     18 N4          2.1100    0.1680   -0.8230 n2        1 7X5     -0.220000
     19 C1         -0.3150    3.2210   -6.0030 c3        1 7X5     -0.931000
     20 O1         -1.5340    1.3720   -4.7810 o         1 7X5     -0.951500
     21 O2         -0.4570    0.8370   -6.8350 o         1 7X5     -0.951500
     22 C2          0.9340    1.3570   -4.8390 c1        1 7X5     -0.956000
     23 C3         -3.1210   -1.2140   -3.2790 c2        1 7X5     -0.166000
     24 C4         -2.4250   -1.0920   -2.1440 c2        1 7X5     -0.151000
     25 C5         -1.5880    0.0640   -1.8940 c2        1 7X5     -0.090000
     26 C6         -0.7700    0.1770   -0.8720 c1        1 7X5      0.008000
     27 C18         1.9450    1.1590   -4.2130 c1        1 7X5      0.136000
     28 H1          2.8330    0.9790   -3.6420 ha        1 7X5      0.264000
     29 H8          1.1160   -0.3480    2.2900 hn        1 7X5      0.268000
     30 H9          3.4020   -0.8280    2.7380 h4        1 7X5      0.166000
     31 H3          5.0530   -0.6320    0.8340 ha        1 7X5      0.166000
     32 H131        4.7800   -2.3050   -0.9350 ho        1 7X5      0.232000
     33 H132        7.0940   -1.8670    0.8800 ha        1 7X5      0.046000
     34 H15         7.9390   -2.5440   -2.1490 h1        1 7X5      0.148000
     35 H16         9.0240   -0.7990   -3.4840 ha        1 7X5      0.169000
     36 H1C1        0.5670    3.4650   -6.6430 h1        1 7X5      0.153000
     37 H1C2       -0.2400    3.8660   -5.0940 h1        1 7X5      0.153000
     38 H1C3       -1.2170    3.5730   -6.5640 h1        1 7X5      0.153000
     39 HA         -3.7550   -2.0870   -3.4790 ha        1 7X5      0.133500
     40 H18        -3.0880   -0.4500   -4.0730 ha        1 7X5      0.133500
     41 H4         -1.6580    0.9020   -2.6250 ha        1 7X5      0.213000
     42 H5         -2.4580   -1.8640   -1.3590 ha        1 7X5      0.123000
     43 S1         -0.4350    1.5690   -5.6420 s6        1 7X5      2.934000
@<TRIPOS>BOND
     1    1    2 1   
     2    1   26 1   
     3    2    3 1   
     4    2   18 1   
     5    3    4 1   
     6    3   29 1   
     7    4    5 1   
     8    4   30 1   
     9    5    6 1   
    10    5   31 1   
    11    6    7 1   
    12    6   18 1   
    13    7    8 1   
    14    8    9 1   
    15    8   16 1   
    16    9   10 1   
    17    9   13 1   
    18   10   32 1   
    19   11   12 1   
    20   11   33 1   
    21   12   13 1   
    22   13   14 1   
    23   13   34 1   
    24   14   15 1   
    25   14   35 1   
    26   15   16 1   
    27   16   17 1   
    28   19   36 1   
    29   19   37 1   
    30   19   38 1   
    31   19   43 1   
    32   20   43 1   
    33   21   43 1   
    34   22   27 1   
    35   22   43 1   
    36   23   24 1   
    37   23   39 1   
    38   23   40 1   
    39   24   25 1   
    40   24   42 1   
    41   25   26 1   
    42   25   41 1   
    43   27   28 1   
@<TRIPOS>SUBSTRUCTURE
     1 7X5         1 TEMP              0 ****  ****    0 ROOT
