@<TRIPOS>MOLECULE
7X5
   45    47     1     0     0
SMALL
bcc


@<TRIPOS>ATOM
      1 N1          0.8940    1.1870   -0.0840 nh        1 7X5     -0.136000
      2 C7          2.1870    0.9270    0.2730 cz        1 7X5      0.182000
      3 N2          2.8150    1.0080    1.5070 na        1 7X5     -0.207000
      4 C8          4.1570    0.6730    1.5650 c2        1 7X5      0.104000
      5 C9          4.8740    0.2810    0.4650 c2        1 7X5     -0.244000
      6 C10         4.2520    0.1840   -0.8480 c2        1 7X5      0.360000
      7 N3          4.8860   -0.1740   -1.9780 nh        1 7X5     -0.140000
      8 C11         6.2480   -0.5840   -2.0630 c2        1 7X5      0.032000
      9 C12         6.7400   -1.6870   -1.2360 c2        1 7X5      0.034000
     10 O3          5.8450   -2.2140   -0.3500 oh        1 7X5     -0.330000
     11 C13         7.7840   -3.8990    0.0630 c1        1 7X5     -0.087000
     12 O4          8.5700   -3.2490   -0.7690 os        1 7X5     -0.081000
     13 C14         8.0280   -2.1220   -1.4100 c2        1 7X5     -0.042000
     14 C15         8.9910   -1.4670   -2.3210 c3        1 7X5     -0.198000
     15 C16         8.4830   -0.3500   -3.0780 c1        1 7X5      0.022000
     16 C17         7.0950   -0.0080   -2.9970 c2        1 7X5     -0.109000
     17 CL1         6.5490    1.1680   -4.0740 cl        1 7X5      0.079000
     18 N4          2.8900    0.5260   -0.9140 na        1 7X5     -0.159000
     19 C1         -1.7920    2.2860   -5.3140 c3        1 7X5     -0.978000
     20 O1         -3.0950    1.0050   -3.4230 os        1 7X5     -0.584000
     21 O2         -2.0390   -0.2570   -5.2880 o         1 7X5     -0.817000
     22 C2         -0.5600    0.8390   -3.5390 c2        1 7X5     -1.073000
     23 C3         -4.3940    0.8350   -3.8720 c2        1 7X5     -0.088000
     24 C4         -4.9080   -0.3810   -4.0930 c2        1 7X5     -0.131000
     25 C5          2.0300    0.5330   -2.0270 c1        1 7X5      0.030000
     26 C6          0.7660    0.9480   -1.4990 c2        1 7X5     -0.270000
     27 C18        -0.4530    1.0980   -2.2070 c2        1 7X5      0.237000
     28 H1         -1.3480    1.4290   -1.6360 ha        1 7X5      0.159000
     29 H8          2.3070    1.2870    2.3240 hn        1 7X5      0.309000
     30 H9          4.6200    0.7470    2.5760 h4        1 7X5      0.229000
     31 H3          5.9350   -0.0110    0.5670 ha        1 7X5      0.230000
     32 H131        6.2490   -3.0610    0.0390 ho        1 7X5      0.319000
     33 H132        8.3350   -4.7680    0.4850 ha        1 7X5      0.127000
     34 H15         9.8970   -1.1000   -1.7360 hc        1 7X5      0.222000
     35 H16         9.4350   -2.2170   -3.0550 hc        1 7X5      0.222000
     36 H1C1       -0.7710    2.7370   -5.4580 h1        1 7X5      0.212333
     37 H1C2       -2.3960    3.1080   -4.8350 h1        1 7X5      0.212333
     38 H1C3       -2.2090    2.1950   -6.3610 h1        1 7X5      0.212333
     39 HA         -4.9370    1.7950   -3.8970 h4        1 7X5      0.183000
     40 H18         0.3960    0.5040   -4.0210 h4        1 7X5      0.241000
     41 H4         -4.3180   -1.3090   -4.0600 ha        1 7X5      0.166500
     42 H5         -5.9750   -0.4980   -4.3420 ha        1 7X5      0.166500
     43 H12         0.1640    1.4770    0.5260 hn        1 7X5      0.304000
     44 H32         4.3780   -0.1710   -2.8570 hn        1 7X5      0.312000
     45 S1         -1.8190    0.8570   -4.4960 s6        1 7X5      2.766000
@<TRIPOS>BOND
     1    1    2 1   
     2    1   26 1   
     3    1   43 1   
     4    2    3 1   
     5    2   18 1   
     6    3    4 1   
     7    3   29 1   
     8    4    5 1   
     9    4   30 1   
    10    5    6 1   
    11    5   31 1   
    12    6    7 1   
    13    6   18 1   
    14    7    8 1   
    15    7   44 1   
    16    8    9 1   
    17    8   16 1   
    18    9   10 1   
    19    9   13 1   
    20   10   32 1   
    21   11   12 1   
    22   11   33 1   
    23   12   13 1   
    24   13   14 1   
    25   14   15 1   
    26   14   34 1   
    27   14   35 1   
    28   15   16 1   
    29   16   17 1   
    30   18   25 1   
    31   19   36 1   
    32   19   37 1   
    33   19   38 1   
    34   19   45 1   
    35   20   23 1   
    36   20   45 1   
    37   21   45 1   
    38   22   27 1   
    39   22   40 1   
    40   22   45 1   
    41   23   24 1   
    42   23   39 1   
    43   24   41 1   
    44   24   42 1   
    45   25   26 1   
    46   26   27 1   
    47   27   28 1   
@<TRIPOS>SUBSTRUCTURE
     1 7X5         1 TEMP              0 ****  ****    0 ROOT
