@<TRIPOS>MOLECULE
7X5
   43    41     1     0     0
SMALL
bcc


@<TRIPOS>ATOM
      1 N1         -1.6450    0.0480    0.2470 n3        1 7X5     -0.225000
      2 C7         -0.2260    0.0360    0.2880 c2        1 7X5      0.163000
      3 N2          0.4210    0.0460    1.4900 n1        1 7X5     -0.222000
      4 C8          1.7610    0.0080    1.5300 c1        1 7X5     -0.144500
      5 C9          2.4780   -0.0400    0.3690 c1        1 7X5     -0.144500
      6 C10         1.8300   -0.0500   -0.8320 c1        1 7X5      0.180000
      7 N3          2.5760   -0.0040   -2.0410 n3        1 7X5     -0.226000
      8 C11         3.5500   -1.0020   -2.3130 c2        1 7X5      0.046000
      9 C12         3.2060   -2.1290   -3.0730 c2        1 7X5     -0.008000
     10 O3          2.0260   -2.4580   -3.8040 os        1 7X5     -0.214000
     11 C13         2.2440   -3.6850   -4.4480 c3        1 7X5      0.100000
     12 O4          3.5340   -4.1220   -4.1160 os        1 7X5     -0.212000
     13 C14         4.1460   -3.1150   -3.3120 c2        1 7X5      0.023000
     14 C15         5.4420   -2.9870   -2.7950 c2        1 7X5     -0.102000
     15 C16         5.7830   -1.8690   -2.0420 c1        1 7X5     -0.124000
     16 C17         4.8370   -0.8760   -1.8010 c1        1 7X5     -0.057000
     17 CL1         5.2930    0.5720   -0.9440 cl        1 7X5      0.019000
     18 N4          0.4870   -0.0120   -0.8700 n2        1 7X5     -0.270000
     19 C1         -6.3150    1.6420    3.9250 c3        1 7X5     -0.936000
     20 S1         -4.5620    1.7080    4.1790 s4        1 7X5      2.076800
     21 O1         -4.0860    0.5270    4.8410 o         1 7X5     -0.543400
     22 O2         -4.2110    2.7240    5.1320 o         1 7X5     -0.543400
     23 C2         -3.7270    1.9600    2.6340 c1        1 7X5     -0.819000
     24 C3         -3.8410    3.1730    1.9750 c2        1 7X5     -0.035000
     25 C4         -3.2170    3.3590    0.7520 c1        1 7X5     -0.141000
     26 C5         -2.4780    2.3310    0.1870 c1        1 7X5     -0.106000
     27 C6         -2.3650    1.1170    0.8470 c2        1 7X5      0.025000
     28 C18        -2.9890    0.9310    2.0700 c2        1 7X5      0.006000
     29 H1         -2.0940   -0.6240   -0.1760 hn        1 7X5      0.229000
     30 H8          2.2230    0.0150    2.3900 ha        1 7X5      0.166500
     31 H9          3.4540   -0.0680    0.3970 ha        1 7X5      0.166500
     32 H3          2.4380    0.6730   -2.6380 hn        1 7X5      0.238000
     33 H131        2.1880   -3.5540   -5.4190 h2        1 7X5      0.118500
     34 H132        1.5890   -4.3390   -4.1250 h2        1 7X5      0.118500
     35 H15         6.1070   -3.6830   -2.9640 ha        1 7X5      0.165000
     36 H16         6.6860   -1.7800   -1.6820 ha        1 7X5      0.159000
     37 H1C1       -6.7510    1.3170    4.7410 h1        1 7X5      0.152667
     38 H1C2       -6.6490    2.5390    3.7110 h1        1 7X5      0.152667
     39 H1C3       -6.5150    1.0330    3.1840 h1        1 7X5      0.152667
     40 HA         -4.3610    3.8970    2.3730 ha        1 7X5      0.159000
     41 H18        -2.9310    0.0680    2.5210 ha        1 7X5      0.175000
     42 H4         -3.2970    4.2130    0.2870 ha        1 7X5      0.143000
     43 H5         -2.0390    2.4610   -0.6730 ha        1 7X5      0.138000
@<TRIPOS>BOND
     1    1    2 1   
     2    1   27 1   
     3    1   29 1   
     4    2    3 1   
     5    2   18 1   
     6    4    5 1   
     7    4   30 1   
     8    5   31 1   
     9    6    7 1   
    10    6   18 1   
    11    7    8 1   
    12    7   32 1   
    13    8    9 1   
    14    8   16 1   
    15    9   10 1   
    16    9   13 1   
    17   10   11 1   
    18   11   12 1   
    19   11   33 1   
    20   11   34 1   
    21   12   13 1   
    22   13   14 1   
    23   14   15 1   
    24   14   35 1   
    25   15   36 1   
    26   16   17 1   
    27   19   20 1   
    28   19   37 1   
    29   19   38 1   
    30   19   39 1   
    31   20   21 1   
    32   20   22 1   
    33   23   24 1   
    34   23   28 1   
    35   24   25 1   
    36   24   40 1   
    37   25   42 1   
    38   26   27 1   
    39   26   43 1   
    40   27   28 1   
    41   28   41 1   
@<TRIPOS>SUBSTRUCTURE
     1 7X5         1 TEMP              0 ****  ****    0 ROOT
