@<TRIPOS>MOLECULE
7X5
   43    42     1     0     0
SMALL
bcc


@<TRIPOS>ATOM
      1 N1         -0.0300   -1.3110    0.8220 n2        1 7X5     -0.144000
      2 C7          1.3670   -0.9700    0.7080 c2        1 7X5      0.206000
      3 N2          1.9830   -0.7210    1.9570 na        1 7X5     -0.263000
      4 C8          3.3320   -0.4350    1.9710 c2        1 7X5      0.030000
      5 C9          4.0560   -0.3810    0.8200 c2        1 7X5     -0.308000
      6 C10         3.3910   -0.6060   -0.4790 c2        1 7X5      0.127000
      7 N3          3.9670   -0.5220   -1.6600 n2        1 7X5     -0.203000
      8 C11         5.3220   -0.2330   -1.8140 c2        1 7X5     -0.058000
      9 C12         6.4000   -0.9880   -1.3940 c2        1 7X5     -0.038000
     10 O3          6.3200   -2.0550   -0.5330 oh        1 7X5     -0.256000
     11 C13         8.3950   -0.0740    0.4270 c1        1 7X5     -0.027000
     12 O4          8.6580   -0.1090   -0.8070 os        1 7X5     -0.048000
     13 C14         7.8430   -0.7830   -1.8300 c3        1 7X5     -0.025000
     14 C15         7.8700   -0.0170   -3.1310 c2        1 7X5     -0.084000
     15 C16         6.8590    0.8250   -3.2170 c1        1 7X5     -0.157000
     16 C17         5.7170    0.9990   -2.5540 c2        1 7X5      0.006000
     17 CL1         4.8590    2.4210   -2.3620 cl        1 7X5      0.048000
     18 N4          2.0040   -0.9230   -0.4590 n2        1 7X5     -0.228000
     19 C1          0.7520    2.2110   -6.5280 c3        1 7X5     -0.932000
     20 O1         -1.4060    1.5110   -5.4160 o         1 7X5     -0.954500
     21 O2         -0.4840    0.0710   -7.0690 o         1 7X5     -0.954500
     22 C2          0.6830    0.2930   -4.8860 c1        1 7X5     -0.950000
     23 C3         -3.7400    1.8470   -3.3220 c2        1 7X5     -0.524000
     24 C4         -3.3490    0.9790   -2.4430 c1        1 7X5      0.095000
     25 C5         -1.6950   -1.4960   -1.1030 c2        1 7X5     -0.220000
     26 C6         -0.7840   -1.3880   -0.1780 c1        1 7X5      0.041000
     27 C18         1.3680   -0.2190   -4.0370 c1        1 7X5      0.128000
     28 H1          1.9760   -0.6670   -3.2760 ha        1 7X5      0.264000
     29 H8          1.4580   -0.7660    2.8010 hn        1 7X5      0.271000
     30 H9          3.7760   -0.2570    2.9680 h4        1 7X5      0.167000
     31 H3          5.1300   -0.1480    0.8350 ha        1 7X5      0.166000
     32 H131        5.3890   -2.2660   -0.3650 ho        1 7X5      0.232000
     33 H132        7.4860   -0.5450    0.8570 ha        1 7X5      0.046000
     34 H15         8.3290   -1.7860   -1.9850 h1        1 7X5      0.148000
     35 H16         8.6040   -0.2770   -3.8960 ha        1 7X5      0.169000
     36 H1C1        1.7210    1.8490   -6.9510 h1        1 7X5      0.153667
     37 H1C2        1.0080    2.9360   -5.7180 h1        1 7X5      0.153667
     38 H1C3        0.2600    2.8060   -7.3390 h1        1 7X5      0.153667
     39 HA         -3.1390    2.0020   -4.2500 ha        1 7X5      0.220000
     40 H18        -4.6330    2.4850   -3.2830 ha        1 7X5      0.220000
     41 H4         -2.3250   -0.6320   -1.4100 ha        1 7X5      0.195500
     42 H5         -1.8930   -2.4510   -1.6100 ha        1 7X5      0.195500
     43 S1         -0.2550    0.9530   -6.0050 s6        1 7X5      2.938000
@<TRIPOS>BOND
     1    1    2 1   
     2    1   26 1   
     3    2    3 1   
     4    2   18 1   
     5    3    4 1   
     6    3   29 1   
     7    4    5 1   
     8    4   30 1   
     9    5    6 1   
    10    5   31 1   
    11    6    7 1   
    12    6   18 1   
    13    7    8 1   
    14    8    9 1   
    15    8   16 1   
    16    9   10 1   
    17    9   13 1   
    18   10   32 1   
    19   11   12 1   
    20   11   33 1   
    21   12   13 1   
    22   13   14 1   
    23   13   34 1   
    24   14   15 1   
    25   14   35 1   
    26   15   16 1   
    27   16   17 1   
    28   19   36 1   
    29   19   37 1   
    30   19   38 1   
    31   19   43 1   
    32   20   43 1   
    33   21   43 1   
    34   22   27 1   
    35   22   43 1   
    36   23   24 1   
    37   23   39 1   
    38   23   40 1   
    39   25   26 1   
    40   25   41 1   
    41   25   42 1   
    42   27   28 1   
@<TRIPOS>SUBSTRUCTURE
     1 7X5         1 TEMP              0 ****  ****    0 ROOT
