@<TRIPOS>MOLECULE
7X6
   45    48     1     0     0
SMALL
bcc


@<TRIPOS>ATOM
      1 N2         13.8360    7.3570   11.0960 nh        1 7X6     -0.709300
      2 C7         13.2200    6.2020   11.6490 ca        1 7X6      0.888900
      3 N3         14.0720    5.2060   12.1200 nb        1 7X6     -0.771000
      4 C8         13.4660    4.0910   12.5610 ca        1 7X6      0.478200
      5 C9         12.0800    3.8960   12.5780 ca        1 7X6     -0.444600
      6 C10        11.2730    4.9690   12.0960 ca        1 7X6      0.735200
      7 N4          9.8800    4.9330   12.0790 nh        1 7X6     -0.737300
      8 C11         9.1420    3.7850   12.3830 ca        1 7X6      0.172600
      9 C12         9.1770    3.1500   13.6260 ca        1 7X6      0.041100
     10 O3          9.9650    3.4590   14.7300 os        1 7X6     -0.320900
     11 C13         9.6190    2.5150   15.7710 c3        1 7X6      0.319200
     12 O4          8.6170    1.6200   15.2360 os        1 7X6     -0.331900
     13 C14         8.3600    2.0330   13.9330 ca        1 7X6      0.073100
     14 C15         7.4630    1.5000   13.0320 ca        1 7X6     -0.118000
     15 C16         7.4050    2.1250   11.7750 ca        1 7X6     -0.111000
     16 C17         8.2120    3.2150   11.4550 ca        1 7X6     -0.013600
     17 CL1         8.0720    3.8910    9.9010 cl        1 7X6     -0.075400
     18 N5         11.8490    6.1240   11.6300 nb        1 7X6     -0.793000
     19 C1          9.5280    8.2010    7.9240 c3        1 7X6     -0.372300
     20 S1          8.8840    8.7060    9.4130 s6        1 7X6      1.470900
     21 O1          8.9300    7.6130   10.2980 o         1 7X6     -0.652300
     22 O2          7.6090    9.2630    9.1780 o         1 7X6     -0.652300
     23 C2         11.1790    9.8870   10.3310 ca        1 7X6      0.187600
     24 C3         11.8300   11.0680   10.7490 ca        1 7X6     -0.192000
     25 C4         13.1230   10.9950   11.2560 ca        1 7X6     -0.078000
     26 C5         13.7820    9.7800   11.3930 ca        1 7X6     -0.201000
     27 C6         13.1460    8.5840   10.9840 ca        1 7X6      0.184600
     28 C18        11.8650    8.6590   10.4060 ca        1 7X6     -0.185000
     29 H2         14.8050    7.4510   11.3320 hn        1 7X6      0.439800
     30 H8         14.1480    3.3020   12.9290 h4        1 7X6      0.025100
     31 H9         11.6400    2.9710   12.9640 ha        1 7X6      0.160000
     32 H4          9.3960    5.6610   11.5770 hn        1 7X6      0.494800
     33 H131       10.5280    1.9190   16.0290 h2        1 7X6      0.076200
     34 H132        9.1760    3.0760   16.6300 h2        1 7X6      0.076200
     35 H15         6.8270    0.6400   13.2770 ha        1 7X6      0.163000
     36 H16         6.7010    1.7330   11.0240 ha        1 7X6      0.156000
     37 H1C1        9.0740    7.2260    7.6130 h1        1 7X6      0.120367
     38 H1C2        9.3190    8.9220    7.0950 h1        1 7X6      0.120367
     39 H1C3       10.6340    8.0350    7.9290 h1        1 7X6      0.120367
     40 H1          9.4970   10.8660    9.8150 hn        1 7X6      0.458800
     41 H3         11.3250   12.0420   10.6860 ha        1 7X6      0.136000
     42 H18        11.3740    7.7400   10.0420 ha        1 7X6      0.166000
     43 HA         13.6290   11.9210   11.5730 ha        1 7X6      0.136000
     44 H5         14.7940    9.7580   11.8230 ha        1 7X6      0.137000
     45 N1          9.8610    9.9370    9.8480 nh        1 7X6     -0.777500
@<TRIPOS>BOND
     1    1    2 1   
     2    1   27 1   
     3    1   29 1   
     4    2    3 ar  
     5    2   18 ar  
     6    3    4 ar  
     7    4    5 ar  
     8    4   30 1   
     9    5    6 ar  
    10    5   31 1   
    11    6    7 1   
    12    6   18 ar  
    13    7    8 1   
    14    7   32 1   
    15    8    9 ar  
    16    8   16 ar  
    17    9   10 1   
    18    9   13 ar  
    19   10   11 1   
    20   11   12 1   
    21   11   33 1   
    22   11   34 1   
    23   12   13 1   
    24   13   14 ar  
    25   14   15 ar  
    26   14   35 1   
    27   15   16 ar  
    28   15   36 1   
    29   16   17 1   
    30   19   20 1   
    31   19   37 1   
    32   19   38 1   
    33   19   39 1   
    34   20   21 2   
    35   20   22 2   
    36   20   45 1   
    37   23   24 ar  
    38   23   28 ar  
    39   23   45 1   
    40   24   25 ar  
    41   24   41 1   
    42   25   26 ar  
    43   25   43 1   
    44   26   27 ar  
    45   26   44 1   
    46   27   28 ar  
    47   28   42 1   
    48   40   45 1   
@<TRIPOS>SUBSTRUCTURE
     1 7X6         1 TEMP              0 ****  ****    0 ROOT
