@<TRIPOS>MOLECULE
7X6
   48    47     1     0     0
SMALL
bcc


@<TRIPOS>ATOM
      1 N2        -79.0530 -328.8710  270.3130 nh        1 7X6     -0.203000
      2 C7        -80.1010 -328.2700  269.5710 c2        1 7X6      0.289000
      3 N3        -81.4090 -328.4010  270.0780 na        1 7X6     -0.247000
      4 C8        -82.4370 -327.7650  269.4070 c2        1 7X6      0.065000
      5 C9        -82.2090 -327.0410  268.2690 c2        1 7X6     -0.238000
      6 C10       -80.8450 -326.9440  267.7610 c2        1 7X6      0.250000
      7 N4        -80.5440 -326.2880  266.6210 nh        1 7X6     -0.112000
      8 C11       -81.5020 -325.6230  265.8260 c2        1 7X6     -0.146000
      9 C12       -81.2780 -324.3470  265.3130 c2        1 7X6      0.136000
     10 O3        -80.0700 -323.7700  265.4880 oh        1 7X6     -0.274000
     11 C13       -80.7250 -322.8450  263.0680 c1        1 7X6     -0.114000
     12 O4        -81.9530 -323.2790  263.2000 os        1 7X6     -0.115000
     13 C14       -82.3410 -323.5320  264.5800 c3        1 7X6      0.036000
     14 C15       -83.7120 -324.1640  264.6840 c2        1 7X6     -0.079000
     15 C16       -83.6290 -325.4540  264.9260 c1        1 7X6     -0.114000
     16 C17       -82.6720 -326.3210  265.2570 c2        1 7X6     -0.029000
     17 CL1       -82.6030 -327.9460  264.8780 cl        1 7X6      0.078000
     18 N5        -79.8030 -327.5730  268.4520 n2        1 7X6     -0.259000
     19 C1        480.7720    0.1320-1584.2800 c2        1 7X6     -1.157000
     20 S1        481.1370    0.2370-1585.8150 s4        1 7X6      2.066800
     21 O1        480.2050    0.8700-1586.7060 o         1 7X6     -0.354400
     22 O2        482.3570    0.6880-1586.1370 o         1 7X6     -0.354400
     23 C2        -75.6140 -328.8460  271.2190 c2        1 7X6      0.158000
     24 C3        -73.3520 -332.4520  271.5840 c1        1 7X6     -0.229000
     25 C4        -72.7930 -331.9670  270.6430 c1        1 7X6     -0.229000
     26 C5        -76.8210 -328.5600  268.9890 cu        1 7X6     -0.097000
     27 C6        -77.7800 -328.8900  269.8370 cu        1 7X6      0.010000
     28 C18       -76.4230 -329.4510  270.1390 cx        1 7X6     -0.169000
     29 H2        -76.2230 -330.5330  269.9610 hc        1 7X6      0.169000
     30 H8        -81.6040 -328.9120  270.9140 hn        1 7X6      0.288000
     31 H9        -83.4500 -327.8830  269.8500 h4        1 7X6      0.218000
     32 H4        -83.0380 -326.5400  267.7400 ha        1 7X6      0.218000
     33 H131      -79.9380 -323.0790  264.7640 ho        1 7X6      0.320000
     34 H132      -80.5040 -322.6320  262.0010 ha        1 7X6      0.128000
     35 H15       -82.4070 -322.5260  265.0970 h1        1 7X6      0.168000
     36 H16       -84.5970 -323.5200  264.6730 ha        1 7X6      0.200000
     37 H1C1      479.8510    0.7090-1583.9370 h4        1 7X6      0.265000
     38 H1C2      480.5190    0.0910-1583.8880 DU        1 7X6      0.269000
     39 H1C3      481.5710    0.4810-1583.5480 h4        1 7X6      0.265000
     40 H1        -74.0140 -328.9310  272.4510 hn        1 7X6      0.296000
     41 H3        -73.8110 -332.9350  272.4150 ha        1 7X6      0.239000
     42 H18       -75.9340 -327.8410  271.5940 h4        1 7X6      0.206000
     43 HA        -76.4450 -328.0870  268.1010 ha        1 7X6      0.247000
     44 H5        -72.2600 -331.5860  269.8030 ha        1 7X6      0.239000
     45 H22       -79.2920 -329.5700  270.9900 hn        1 7X6      0.275000
     46 H42       -79.5840 -326.1670  266.3410 hn        1 7X6      0.285000
     47 H12       -74.1960 -330.3000  271.4340 hn        1 7X6      0.296000
     48 N1        -74.5490 -329.3930  271.7320 n3        1 7X6     -0.158000
@<TRIPOS>BOND
     1    1    2 1   
     2    1   27 1   
     3    1   45 1   
     4    2    3 1   
     5    2   18 1   
     6    3    4 1   
     7    3   30 1   
     8    4    5 1   
     9    4   31 1   
    10    5    6 1   
    11    5   32 1   
    12    6    7 1   
    13    6   18 1   
    14    7    8 1   
    15    7   46 1   
    16    8    9 1   
    17    8   16 1   
    18    9   10 1   
    19    9   13 1   
    20   10   33 1   
    21   11   12 1   
    22   11   34 1   
    23   12   13 1   
    24   13   14 1   
    25   13   35 1   
    26   14   15 1   
    27   14   36 1   
    28   15   16 1   
    29   16   17 1   
    30   19   20 1   
    31   19   37 1   
    32   19   39 1   
    33   20   21 1   
    34   20   22 1   
    35   23   28 1   
    36   23   42 1   
    37   23   48 1   
    38   24   25 1   
    39   24   41 1   
    40   25   44 1   
    41   26   27 1   
    42   26   28 1   
    43   26   43 1   
    44   27   28 1   
    45   28   29 1   
    46   40   48 1   
    47   47   48 1   
@<TRIPOS>SUBSTRUCTURE
     1 7X6         1 TEMP              0 ****  ****    0 ROOT
