@<TRIPOS>MOLECULE
7X6
   45    45     1     0     0
SMALL
bcc


@<TRIPOS>ATOM
      1 N2         -0.2850   -0.5960    0.0150 n2        1 7X6     -0.231000
      2 C7          1.1320   -0.4190    0.0560 c2        1 7X6      0.205000
      3 N3          1.6690   -0.6070    1.3530 na        1 7X6     -0.269000
      4 C8          3.0310   -0.4500    1.5250 c2        1 7X6      0.006000
      5 C9          3.8410   -0.1050    0.4900 c2        1 7X6     -0.264000
      6 C10         3.2660    0.1180   -0.8510 c2        1 7X6      0.156000
      7 N4          3.9220    0.5230   -1.9180 n2        1 7X6     -0.205000
      8 C11         5.2920    0.7390   -1.9430 c2        1 7X6      0.009000
      9 C12         6.3110   -0.1170   -1.5590 c2        1 7X6     -0.043000
     10 O3          6.0030   -1.3350   -1.0070 oh        1 7X6     -0.272000
     11 C13         8.1980   -1.7800   -2.8400 c1        1 7X6     -0.098000
     12 O4          8.4200   -0.4930   -2.7790 os        1 7X6     -0.153000
     13 C14         7.7990    0.1920   -1.6490 c3        1 7X6      0.064000
     14 C15         8.0270    1.6840   -1.7430 c2        1 7X6     -0.115000
     15 C16         7.0110    2.2860   -2.3240 c1        1 7X6     -0.163000
     16 C17         5.7860    1.9230   -2.7060 c2        1 7X6      0.022000
     17 Cl1         4.9270    2.5480   -3.9960 cl        1 7X6      0.058000
     18 N5          1.8670   -0.0880   -1.0050 n2        1 7X6     -0.235000
     19 C1          2.0370   -0.0450   -5.0070 c3        1 7X6     -0.980000
     20 S1          0.5260   -0.5660   -5.5190 s6        1 7X6      2.815000
     21 O1          0.3440   -1.9100   -5.1480 o         1 7X6     -0.928000
     22 O2          0.3610   -0.2520   -6.8840 o         1 7X6     -0.928000
     23 C2         -0.9080    0.3160   -3.3670 c2        1 7X6      0.076000
     24 C3         -4.0400    3.3050   -2.7960 c1        1 7X6     -0.231500
     25 C4         -3.7180    2.3150   -2.2080 c1        1 7X6     -0.231500
     26 C5         -2.3960   -0.5970   -1.1490 c1        1 7X6      0.020000
     27 C6         -0.9690   -0.6340   -1.0950 c2        1 7X6      0.081000
     28 C18        -0.5110   -0.6480   -2.5000 c2        1 7X6     -0.303000
     29 H2          0.1800   -1.4680   -2.7580 ha        1 7X6      0.189000
     30 H8          1.0810   -0.8370    2.1200 hn        1 7X6      0.261000
     31 H9          3.4060   -0.6250    2.5500 h4        1 7X6      0.157000
     32 H4          4.9260   -0.0090    0.6240 ha        1 7X6      0.171000
     33 H131        6.6120   -1.9920   -1.4070 ho        1 7X6      0.259000
     34 H132        8.7290   -2.1880   -3.7330 ha        1 7X6      0.064000
     35 H15         8.3000   -0.1880   -0.7140 h1        1 7X6      0.135000
     36 H16         8.8870    2.1290   -1.2390 ha        1 7X6      0.165000
     37 H1C1        2.8390   -0.7620   -5.3230 h1        1 7X6      0.180333
     38 H1C2        2.3360    0.9510   -5.4200 h1        1 7X6      0.180333
     39 H1C3        2.1560    0.0450   -3.8920 h1        1 7X6      0.180333
     40 H1         -0.9540    1.1640   -5.1770 hn        1 7X6      0.255000
     41 H3         -4.3270    4.1840   -3.3160 ha        1 7X6      0.229500
     42 H18        -1.6000    1.1210   -3.0270 h4        1 7X6      0.166000
     43 HA         -3.0090   -1.4990   -1.0850 ha        1 7X6      0.122000
     44 H5         -3.4360    1.4320   -1.6770 ha        1 7X6      0.229500
     45 N1         -0.5220    0.4080   -4.6900 n7        1 7X6     -0.805000
@<TRIPOS>BOND
     1    1    2 1   
     2    1   27 1   
     3    2    3 1   
     4    2   18 1   
     5    3    4 1   
     6    3   30 1   
     7    4    5 1   
     8    4   31 1   
     9    5    6 1   
    10    5   32 1   
    11    6    7 1   
    12    6   18 1   
    13    7    8 1   
    14    8    9 1   
    15    8   16 1   
    16    9   10 1   
    17    9   13 1   
    18   10   33 1   
    19   11   12 1   
    20   11   34 1   
    21   12   13 1   
    22   13   14 1   
    23   13   35 1   
    24   14   15 1   
    25   14   36 1   
    26   15   16 1   
    27   16   17 1   
    28   19   20 1   
    29   19   37 1   
    30   19   38 1   
    31   19   39 1   
    32   20   21 1   
    33   20   22 1   
    34   20   45 1   
    35   23   28 1   
    36   23   42 1   
    37   23   45 1   
    38   24   25 1   
    39   24   41 1   
    40   25   44 1   
    41   26   27 1   
    42   26   43 1   
    43   27   28 1   
    44   28   29 1   
    45   40   45 1   
@<TRIPOS>SUBSTRUCTURE
     1 7X6         1 TEMP              0 ****  ****    0 ROOT
