@<TRIPOS>MOLECULE
7X6
   45    43     1     0     0
SMALL
bcc


@<TRIPOS>ATOM
      1 N2         -1.5360   -1.4790    0.3280 n3        1 7X6     -0.229000
      2 C7         -0.1130   -1.4440    0.3730 c2        1 7X6      0.173000
      3 N3          0.5290   -1.4820    1.5750 n1        1 7X6     -0.235000
      4 C8          1.8700   -1.5240    1.6180 c1        1 7X6     -0.147500
      5 C9          2.5910   -1.5290    0.4580 c1        1 7X6     -0.147500
      6 C10         1.9470   -1.4910   -0.7440 c1        1 7X6      0.180000
      7 N4          2.6920   -1.5880   -1.9530 n3        1 7X6     -0.226000
      8 C11         4.0730   -1.2470   -1.9660 c2        1 7X6      0.048000
      9 C12         4.4710    0.0430   -2.3440 c2        1 7X6     -0.009000
     10 O3          3.7270    1.2200   -2.6490 os        1 7X6     -0.215000
     11 C13         4.6330    2.2140   -3.0480 c3        1 7X6      0.100000
     12 O4          5.9270    1.6880   -2.9290 os        1 7X6     -0.212000
     13 C14         5.8170    0.3450   -2.4630 c2        1 7X6      0.022000
     14 C15         6.7800   -0.6400   -2.2070 c2        1 7X6     -0.103000
     15 C16         6.3850   -1.9190   -1.8330 c1        1 7X6     -0.125000
     16 C17         5.0300   -2.2230   -1.7120 c1        1 7X6     -0.057000
     17 CL1         4.5340   -3.8460   -1.3120 cl        1 7X6      0.021000
     18 N5          0.6050   -1.4490   -0.7850 n2        1 7X6     -0.261000
     19 C1         -7.4450    1.6630    3.6490 c3        1 7X6     -0.949000
     20 S1         -6.4300    0.7060    2.5530 s4        1 7X6      2.042800
     21 O1         -6.9160    0.7690    1.2020 o         1 7X6     -0.538900
     22 O2         -6.5480   -0.7000    2.8260 o         1 7X6     -0.538900
     23 N1         -4.8660    1.2020    2.6470 n2        1 7X6     -0.836000
     24 C2         -3.9910    1.0110    1.5430 c2        1 7X6      0.086000
     25 C3         -3.8310    2.0210    0.6050 c2        1 7X6     -0.176000
     26 C4         -2.8970    1.8830   -0.4090 c1        1 7X6     -0.099000
     27 C5         -2.1220    0.7360   -0.4870 c1        1 7X6     -0.126000
     28 C6         -2.2810   -0.2730    0.4490 c2        1 7X6      0.083000
     29 C18        -3.2160   -0.1360    1.4640 c2        1 7X6     -0.216000
     30 H2         -1.9700   -2.2750    0.2290 hn        1 7X6      0.239000
     31 H8          2.3300   -1.5500    2.4790 ha        1 7X6      0.163000
     32 H9          3.5660   -1.5590    0.4890 ha        1 7X6      0.163000
     33 H4          2.2920   -1.9000   -2.7110 hn        1 7X6      0.237000
     34 H131        4.5440    2.9880   -2.4530 h2        1 7X6      0.118000
     35 H132        4.4640    2.4460   -3.9860 h2        1 7X6      0.118000
     36 H15         7.7300   -0.4270   -2.2910 ha        1 7X6      0.165000
     37 H16         7.0570   -2.6040   -1.6540 ha        1 7X6      0.158000
     38 H1C1       -8.3140    1.2220    3.7580 h1        1 7X6      0.157333
     39 H1C2       -7.5780    2.5580    3.2730 h1        1 7X6      0.157333
     40 H1C3       -7.0050    1.7370    4.5210 h1        1 7X6      0.157333
     41 H1         -4.5680    1.6280    3.3960 hn        1 7X6      0.255000
     42 H3         -4.3770    2.8290    0.6600 ha        1 7X6      0.135000
     43 H18        -3.3420   -0.8550    2.1120 ha        1 7X6      0.171000
     44 HA         -2.7840    2.5940   -1.0690 ha        1 7X6      0.137000
     45 H5         -1.4640    0.6390   -1.2020 ha        1 7X6      0.158000
@<TRIPOS>BOND
     1    1    2 1   
     2    1   28 1   
     3    1   30 1   
     4    2    3 1   
     5    2   18 1   
     6    4    5 1   
     7    4   31 1   
     8    5   32 1   
     9    6    7 1   
    10    6   18 1   
    11    7    8 1   
    12    7   33 1   
    13    8    9 1   
    14    8   16 1   
    15    9   10 1   
    16    9   13 1   
    17   10   11 1   
    18   11   12 1   
    19   11   34 1   
    20   11   35 1   
    21   12   13 1   
    22   13   14 1   
    23   14   15 1   
    24   14   36 1   
    25   15   37 1   
    26   16   17 1   
    27   19   20 1   
    28   19   38 1   
    29   19   39 1   
    30   19   40 1   
    31   20   21 1   
    32   20   22 1   
    33   23   24 1   
    34   23   41 1   
    35   24   25 1   
    36   24   29 1   
    37   25   26 1   
    38   25   42 1   
    39   26   44 1   
    40   27   28 1   
    41   27   45 1   
    42   28   29 1   
    43   29   43 1   
@<TRIPOS>SUBSTRUCTURE
     1 7X6         1 TEMP              0 ****  ****    0 ROOT
