@<TRIPOS>MOLECULE
7X6
   45    45     1     0     0
SMALL
bcc


@<TRIPOS>ATOM
      1 N2          0.6380    0.6360    0.3540 n2        1 7X6     -0.114000
      2 C7          2.0520    0.3780    0.5390 c2        1 7X6      0.186000
      3 N3          2.4300    0.2620    1.8960 na        1 7X6     -0.267000
      4 C8          3.7690    0.0630    2.1770 c2        1 7X6      0.014000
      5 C9          4.6920   -0.0410    1.1850 c2        1 7X6     -0.282000
      6 C10         4.2770    0.0750   -0.2290 c2        1 7X6      0.135000
      7 N4          5.0730   -0.0080   -1.2710 n2        1 7X6     -0.180000
      8 C11         6.4540   -0.1830   -1.1350 c2        1 7X6     -0.068000
      9 C12         7.1050   -1.3830   -1.3480 c2        1 7X6     -0.011000
     10 O3          6.4790   -2.6000   -1.4550 oh        1 7X6     -0.262000
     11 C13         8.7410   -2.9780    0.4730 c1        1 7X6     -0.038000
     12 O4          9.2130   -2.0370   -0.2270 os        1 7X6     -0.049000
     13 C14         8.6100   -1.5580   -1.4820 c3        1 7X6     -0.028000
     14 C15         9.2270   -0.2490   -1.9080 c2        1 7X6     -0.084000
     15 C16         8.5610    0.7800   -1.4210 c1        1 7X6     -0.154000
     16 C17         7.3740    0.9490   -0.8410 c2        1 7X6     -0.001000
     17 CL1         6.9450    2.1650    0.2260 cl        1 7X6      0.039000
     18 N5          2.8900    0.2820   -0.4850 n2        1 7X6     -0.199000
     19 C1         -1.3960    2.1950   -7.2850 c3        1 7X6     -0.954000
     20 S1         -2.6360    2.4030   -6.1470 s6        1 7X6      2.828000
     21 O1         -3.3930    1.2150   -6.0970 o         1 7X6     -0.929000
     22 O2         -3.3140    3.5960   -6.4490 o         1 7X6     -0.929000
     23 C2         -1.5690    1.5760   -3.8510 c2        1 7X6     -0.007000
     24 C3         -3.2690   -1.4820   -4.4000 c1        1 7X6     -0.231000
     25 C4         -2.7890   -2.1930   -3.5660 c1        1 7X6     -0.231000
     26 C5         -0.6320    0.5380   -1.8650 c2        1 7X6     -0.096000
     27 C6          0.0880    0.5810   -0.7640 c1        1 7X6      0.034000
     28 C18        -0.8300    1.6830   -2.7220 c2        1 7X6     -0.186000
     29 H2         -0.3520    2.6280   -2.4190 ha        1 7X6      0.141000
     30 H8          1.7640    0.3780    2.6250 hn        1 7X6      0.266000
     31 H9          4.0260   -0.0120    3.2500 h4        1 7X6      0.164000
     32 H4          5.7550   -0.2000    1.4120 ha        1 7X6      0.170000
     33 H131        5.5260   -2.4660   -1.5710 ho        1 7X6      0.240000
     34 H132        7.8040   -3.5080    0.2050 ha        1 7X6      0.061000
     35 H15         8.8250   -2.3390   -2.2630 h1        1 7X6      0.140000
     36 H16        10.0450   -0.2460   -2.6310 ha        1 7X6      0.166000
     37 H1C1       -1.8280    2.0160   -8.3030 h1        1 7X6      0.161333
     38 H1C2       -0.7320    1.3200   -7.0770 h1        1 7X6      0.161333
     39 H1C3       -0.7270    3.0840   -7.3880 h1        1 7X6      0.161333
     40 H1         -1.4890    3.5020   -4.4660 hn        1 7X6      0.252000
     41 H3         -3.6930   -0.8420   -5.1420 ha        1 7X6      0.232500
     42 H18        -2.0470    0.6080   -4.1300 h4        1 7X6      0.171000
     43 HA         -1.1270   -0.4140   -2.1440 ha        1 7X6      0.172000
     44 H5         -2.3730   -2.8360   -2.8320 ha        1 7X6      0.232500
     45 N1         -1.8190    2.6060   -4.7470 n3        1 7X6     -0.823000
@<TRIPOS>BOND
     1    1    2 1   
     2    1   27 1   
     3    2    3 1   
     4    2   18 1   
     5    3    4 1   
     6    3   30 1   
     7    4    5 1   
     8    4   31 1   
     9    5    6 1   
    10    5   32 1   
    11    6    7 1   
    12    6   18 1   
    13    7    8 1   
    14    8    9 1   
    15    8   16 1   
    16    9   10 1   
    17    9   13 1   
    18   10   33 1   
    19   11   12 1   
    20   11   34 1   
    21   12   13 1   
    22   13   14 1   
    23   13   35 1   
    24   14   15 1   
    25   14   36 1   
    26   15   16 1   
    27   16   17 1   
    28   19   20 1   
    29   19   37 1   
    30   19   38 1   
    31   19   39 1   
    32   20   21 1   
    33   20   22 1   
    34   20   45 1   
    35   23   28 1   
    36   23   42 1   
    37   23   45 1   
    38   24   25 1   
    39   24   41 1   
    40   25   44 1   
    41   26   27 1   
    42   26   28 1   
    43   26   43 1   
    44   28   29 1   
    45   40   45 1   
@<TRIPOS>SUBSTRUCTURE
     1 7X6         1 TEMP              0 ****  ****    0 ROOT
