@<TRIPOS>MOLECULE
7X7
   50    54     1     0     0
SMALL
bcc


@<TRIPOS>ATOM
      1 Cl1        -0.2960    0.6570   -1.8660 cl        1 7X7     -0.075400
      2 C1          1.1160    0.2330   -1.0190 ca        1 7X7     -0.016600
      3 C2          1.0490    0.1200    0.3670 ca        1 7X7     -0.112000
      4 C3          2.1710   -0.2280    1.1390 ca        1 7X7     -0.110000
      5 C4          3.3420   -0.4460    0.4440 ca        1 7X7      0.068100
      6 O1          4.5890   -0.7930    0.9500 os        1 7X7     -0.329900
      7 C5          5.4900   -0.8850   -0.1790 c3        1 7X7      0.317200
      8 O2          4.7260   -0.6000   -1.3740 os        1 7X7     -0.316900
      9 C6          3.4250   -0.3260   -0.9680 ca        1 7X7      0.064100
     10 C7          2.3250    0.0140   -1.7540 ca        1 7X7      0.137600
     11 N1          2.4200    0.2240   -3.1430 nu        1 7X7     -0.705300
     12 C8          2.4970   -0.8760   -4.0240 ca        1 7X7      0.699200
     13 C9          3.0980   -2.1050   -3.6310 ca        1 7X7     -0.436600
     14 C10         3.1920   -3.1030   -4.6110 ca        1 7X7      0.478200
     15 N2          2.7590   -2.9630   -5.8710 nb        1 7X7     -0.766000
     16 C11         2.1970   -1.7260   -6.1860 ca        1 7X7      0.892900
     17 N3          1.8320   -1.5420   -7.5380 nu        1 7X7     -0.708300
     18 C12         0.9440   -0.5150   -7.9430 ca        1 7X7      0.153600
     19 C13         1.2640    0.8410   -7.7530 ca        1 7X7     -0.129000
     20 C14         0.4010    1.8200   -8.2390 ca        1 7X7     -0.103000
     21 C15        -0.7610    1.4900   -8.9230 ca        1 7X7     -0.162000
     22 C16        -1.1010    0.1320   -9.1340 ca        1 7X7      0.144600
     23 C17        -0.2430   -0.8610   -8.6250 ca        1 7X7     -0.215000
     24 N4         -2.2500   -0.1770   -9.9110 nh        1 7X7     -0.631000
     25 C18        -2.4040   -1.5650  -10.3170 c3        1 7X7      0.148300
     26 C19        -3.5860   -1.7500  -11.2770 c3        1 7X7      0.123900
     27 O3         -4.7890   -1.2160  -10.7380 os        1 7X7     -0.414600
     28 C20        -4.6590    0.1590  -10.3960 c3        1 7X7      0.123900
     29 C21        -3.4980    0.3950   -9.4210 c3        1 7X7      0.148300
     30 N5          2.0240   -0.6850   -5.2980 nb        1 7X7     -0.787000
     31 H2          0.0920    0.3040    0.8820 ha        1 7X7      0.158000
     32 H3          2.1130   -0.3170    2.2310 ha        1 7X7      0.165000
     33 H5C1        5.8760   -1.9320   -0.2430 h2        1 7X7      0.077700
     34 H5C2        6.2840   -0.1060   -0.0680 h2        1 7X7      0.077700
     35 H1          1.8550    0.9890   -3.4670 hn        1 7X7      0.441800
     36 H9          3.4880   -2.2620   -2.6200 ha        1 7X7      0.163000
     37 H10         3.6420   -4.0850   -4.3720 h4        1 7X7      0.026100
     38 HA          1.7340   -2.3940   -8.0540 hn        1 7X7      0.437800
     39 H13         2.1840    1.1360   -7.2270 ha        1 7X7      0.155000
     40 H17        -0.4900   -1.9260   -8.7600 ha        1 7X7      0.133000
     41 H14         0.6540    2.8810   -8.0870 ha        1 7X7      0.134000
     42 H15        -1.4030    2.2930   -9.3120 ha        1 7X7      0.137000
     43 H181       -2.5640   -2.2440   -9.4280 h1        1 7X7      0.047700
     44 H182       -1.4620   -1.8850  -10.8440 h1        1 7X7      0.047700
     45 H211       -3.3620    1.5040   -9.2910 h1        1 7X7      0.047700
     46 H212       -3.7790   -0.0430   -8.4190 h1        1 7X7      0.047700
     47 H191       -3.3730   -1.2700  -12.2680 h1        1 7X7      0.055950
     48 H192       -3.8010   -2.8420  -11.4140 h1        1 7X7      0.055950
     49 H201       -4.5220    0.7660  -11.3300 h1        1 7X7      0.055950
     50 H202       -5.6320    0.4190   -9.9030 h1        1 7X7      0.055950
@<TRIPOS>BOND
     1    1    2 1   
     2    2    3 ar  
     3    2   10 ar  
     4    3    4 ar  
     5    3   31 1   
     6    4    5 ar  
     7    4   32 1   
     8    5    6 1   
     9    5    9 ar  
    10    6    7 1   
    11    7    8 1   
    12    7   33 1   
    13    7   34 1   
    14    8    9 1   
    15    9   10 ar  
    16   10   11 1   
    17   11   12 1   
    18   11   35 1   
    19   12   13 ar  
    20   12   30 ar  
    21   13   14 ar  
    22   13   36 1   
    23   14   15 ar  
    24   14   37 1   
    25   15   16 ar  
    26   16   17 1   
    27   16   30 ar  
    28   17   18 1   
    29   17   38 1   
    30   18   19 ar  
    31   18   23 ar  
    32   19   20 ar  
    33   19   39 1   
    34   20   21 ar  
    35   20   41 1   
    36   21   22 ar  
    37   21   42 1   
    38   22   23 ar  
    39   22   24 1   
    40   23   40 1   
    41   24   25 1   
    42   24   29 1   
    43   25   26 1   
    44   25   43 1   
    45   25   44 1   
    46   26   27 1   
    47   26   47 1   
    48   26   48 1   
    49   27   28 1   
    50   28   29 1   
    51   28   49 1   
    52   28   50 1   
    53   29   45 1   
    54   29   46 1   
@<TRIPOS>SUBSTRUCTURE
     1 7X7         1 TEMP              0 ****  ****    0 ROOT
