@<TRIPOS>MOLECULE
7X7
   50    54     1     0     0
SMALL
bcc


@<TRIPOS>ATOM
      1 CL1        -0.3110    0.5820   -1.8470 cl        1 7X7     -0.075400
      2 C1          1.1130    0.1760   -1.0100 ca        1 7X7     -0.016600
      3 C2          1.0520    0.0420    0.3750 ca        1 7X7     -0.112000
      4 C3          2.1840   -0.2920    1.1380 ca        1 7X7     -0.110000
      5 C4          3.3570   -0.4750    0.4380 ca        1 7X7      0.068100
      6 O1          4.6130   -0.8020    0.9350 os        1 7X7     -0.329900
      7 C5          5.5120   -0.8580   -0.1970 c3        1 7X7      0.317200
      8 O2          4.7390   -0.5720   -1.3860 os        1 7X7     -0.316900
      9 C6          3.4330   -0.3320   -0.9730 ca        1 7X7      0.064100
     10 C7          2.3240   -0.0050   -1.7510 ca        1 7X7      0.137600
     11 N1          2.4100    0.2270   -3.1380 nh        1 7X7     -0.705300
     12 C8          2.5090   -0.8580   -4.0340 ca        1 7X7      0.699200
     13 C9          3.1370   -2.0800   -3.6610 ca        1 7X7     -0.436600
     14 C10         3.2510   -3.0610   -4.6550 ca        1 7X7      0.478200
     15 N2          2.8100   -2.9120   -5.9120 nb        1 7X7     -0.766000
     16 C11         2.2210   -1.6830   -6.2070 ca        1 7X7      0.892900
     17 N3          1.8480   -1.4870   -7.5560 nh        1 7X7     -0.708300
     18 C12         0.9370   -0.4750   -7.9430 ca        1 7X7      0.153600
     19 C13         1.2280    0.8860   -7.7340 ca        1 7X7     -0.129000
     20 C14         0.3430    1.8520   -8.2040 ca        1 7X7     -0.103000
     21 C15        -0.8130    1.5070   -8.8900 ca        1 7X7     -0.162000
     22 C16        -1.1250    0.1460   -9.1200 ca        1 7X7      0.144600
     23 C17        -0.2440   -0.8360   -8.6280 ca        1 7X7     -0.215000
     24 N4         -2.2690   -0.1760   -9.8980 nh        1 7X7     -0.631000
     25 C18        -2.3940   -1.5620  -10.3230 c3        1 7X7      0.148300
     26 C19        -3.5760   -1.7580  -11.2840 c3        1 7X7      0.123900
     27 O3         -4.7880   -1.2580  -10.7330 os        1 7X7     -0.414600
     28 C20        -4.6860    0.1150  -10.3720 c3        1 7X7      0.123900
     29 C21        -3.5280    0.3610   -9.3960 c3        1 7X7      0.148300
     30 N5          2.0280   -0.6590   -5.3040 nb        1 7X7     -0.787000
     31 H2          0.0930    0.1980    0.8950 ha        1 7X7      0.158000
     32 H3          2.1310   -0.3990    2.2290 ha        1 7X7      0.165000
     33 H5C1        5.9210   -1.8950   -0.2780 h2        1 7X7      0.077700
     34 H5C2        6.2890   -0.0630   -0.0770 h2        1 7X7      0.077700
     35 H1          1.8270    0.9840   -3.4490 hn        1 7X7      0.441800
     36 H9          3.5330   -2.2430   -2.6530 ha        1 7X7      0.163000
     37 H10         3.7220   -4.0360   -4.4310 h4        1 7X7      0.026100
     38 HA          1.7670   -2.3340   -8.0840 hn        1 7X7      0.437800
     39 H13         2.1430    1.1930   -7.2070 ha        1 7X7      0.155000
     40 H17        -0.4690   -1.9040   -8.7770 ha        1 7X7      0.133000
     41 H14         0.5740    2.9160   -8.0370 ha        1 7X7      0.134000
     42 H15        -1.4740    2.3030   -9.2660 ha        1 7X7      0.137000
     43 H181       -1.4480   -1.8530  -10.8580 h1        1 7X7      0.047700
     44 H182       -2.5370   -2.2560   -9.4450 h1        1 7X7      0.047700
     45 H211       -3.7960   -0.0980   -8.4000 h1        1 7X7      0.047700
     46 H212       -3.4150    1.4700   -9.2510 h1        1 7X7      0.047700
     47 H191       -3.3750   -1.2590  -12.2680 h1        1 7X7      0.055950
     48 H192       -3.7670   -2.8520  -11.4360 h1        1 7X7      0.055950
     49 H201       -4.5660    0.7380  -11.2960 h1        1 7X7      0.055950
     50 H202       -5.6630    0.3460   -9.8720 h1        1 7X7      0.055950
@<TRIPOS>BOND
     1    1    2 1   
     2    2    3 ar  
     3    2   10 ar  
     4    3    4 ar  
     5    3   31 1   
     6    4    5 ar  
     7    4   32 1   
     8    5    6 1   
     9    5    9 ar  
    10    6    7 1   
    11    7    8 1   
    12    7   33 1   
    13    7   34 1   
    14    8    9 1   
    15    9   10 ar  
    16   10   11 1   
    17   11   12 1   
    18   11   35 1   
    19   12   13 ar  
    20   12   30 ar  
    21   13   14 ar  
    22   13   36 1   
    23   14   15 ar  
    24   14   37 1   
    25   15   16 ar  
    26   16   17 1   
    27   16   30 ar  
    28   17   18 1   
    29   17   38 1   
    30   18   19 ar  
    31   18   23 ar  
    32   19   20 ar  
    33   19   39 1   
    34   20   21 ar  
    35   20   41 1   
    36   21   22 ar  
    37   21   42 1   
    38   22   23 ar  
    39   22   24 1   
    40   23   40 1   
    41   24   25 1   
    42   24   29 1   
    43   25   26 1   
    44   25   43 1   
    45   25   44 1   
    46   26   27 1   
    47   26   47 1   
    48   26   48 1   
    49   27   28 1   
    50   28   29 1   
    51   28   49 1   
    52   28   50 1   
    53   29   45 1   
    54   29   46 1   
@<TRIPOS>SUBSTRUCTURE
     1 7X7         1 TEMP              0 ****  ****    0 ROOT
