@<TRIPOS>MOLECULE
7X7
   50    54     1     0     0
SMALL
bcc


@<TRIPOS>ATOM
      1 CL1         9.1200    5.2090    9.9190 cl        1 7X7     -0.075400
      2 C1          8.9930    3.8970   10.9940 ca        1 7X7     -0.016600
      3 C2          8.3920    2.7250   10.5420 ca        1 7X7     -0.112000
      4 C3          8.2510    1.5970   11.3680 ca        1 7X7     -0.110000
      5 C4          8.7370    1.7200   12.6520 ca        1 7X7      0.068100
      6 O1          8.7240    0.7740   13.6690 os        1 7X7     -0.329900
      7 C5          9.3330    1.3930   14.8270 c3        1 7X7      0.317200
      8 O2          9.7260    2.7330   14.4520 os        1 7X7     -0.316900
      9 C6          9.3440    2.9120   13.1270 ca        1 7X7      0.064100
     10 C7          9.4980    4.0420   12.3250 ca        1 7X7      0.137600
     11 N1         10.0150    5.2570   12.8150 nh        1 7X7     -0.705300
     12 C8         11.4050    5.4100   13.0080 ca        1 7X7      0.699200
     13 C9         12.2380    4.3060   13.3430 ca        1 7X7     -0.436600
     14 C10        13.5880    4.5870   13.5910 ca        1 7X7      0.478200
     15 N2         14.1250    5.8130   13.5320 nb        1 7X7     -0.766000
     16 C11        13.2430    6.8460   13.2150 ca        1 7X7      0.892900
     17 N3         13.7850    8.1510   13.2510 nh        1 7X7     -0.708300
     18 C12        13.1460    9.2470   12.6230 ca        1 7X7      0.153600
     19 C13        11.8660    9.6720   13.0250 ca        1 7X7     -0.129000
     20 C14        11.3090   10.8050   12.4380 ca        1 7X7     -0.103000
     21 C15        11.9920   11.5360   11.4760 ca        1 7X7     -0.162000
     22 C16        13.2830   11.1340   11.0600 ca        1 7X7      0.144600
     23 C17        13.8420    9.9770   11.6350 ca        1 7X7     -0.215000
     24 N4         13.9940   11.9480   10.1380 nh        1 7X7     -0.631000
     25 C18        15.4020   11.6360    9.9500 c3        1 7X7      0.148300
     26 C19        16.1010   12.6720    9.0590 c3        1 7X7      0.123900
     27 O3         15.4220   12.8420    7.8200 os        1 7X7     -0.414600
     28 C20        14.0590   13.2060    8.0020 c3        1 7X7      0.123900
     29 C21        13.3100   12.1900    8.8740 c3        1 7X7      0.148300
     30 N5         11.9060    6.6850   12.9220 nb        1 7X7     -0.787000
     31 H2          8.0170    2.6710    9.5070 ha        1 7X7      0.158000
     32 H3          7.7790    0.6750   11.0060 ha        1 7X7      0.165000
     33 H5C1        8.5690    1.4590   15.6410 h2        1 7X7      0.077700
     34 H5C2       10.2500    0.8150   15.1000 h2        1 7X7      0.077700
     35 H1          9.5460    6.0640   12.4460 hn        1 7X7      0.441800
     36 H9         11.8440    3.2880   13.4250 ha        1 7X7      0.163000
     37 H10        14.2930    3.7740   13.8490 h4        1 7X7      0.026100
     38 HA         14.7850    8.1790   13.2050 hn        1 7X7      0.437800
     39 H13        11.3050    9.1230   13.7950 ha        1 7X7      0.155000
     40 H17        14.8390    9.6300   11.3200 ha        1 7X7      0.133000
     41 H14        10.3060   11.1330   12.7540 ha        1 7X7      0.134000
     42 H15        11.5250   12.4390   11.0550 ha        1 7X7      0.137000
     43 H181       15.9020   11.6370   10.9590 h1        1 7X7      0.047700
     44 H182       15.5440   10.6170    9.4820 h1        1 7X7      0.047700
     45 H211       13.1930   11.2330    8.2860 h1        1 7X7      0.047700
     46 H212       12.2830   12.5950    9.0890 h1        1 7X7      0.047700
     47 H191       16.1790   13.6600    9.5840 h1        1 7X7      0.055950
     48 H192       17.1200   12.3040    8.7710 h1        1 7X7      0.055950
     49 H201       14.0020   14.2330    8.4510 h1        1 7X7      0.055950
     50 H202       13.6300   13.2120    6.9660 h1        1 7X7      0.055950
@<TRIPOS>BOND
     1    1    2 1   
     2    2    3 ar  
     3    2   10 ar  
     4    3    4 ar  
     5    3   31 1   
     6    4    5 ar  
     7    4   32 1   
     8    5    6 1   
     9    5    9 ar  
    10    6    7 1   
    11    7    8 1   
    12    7   33 1   
    13    7   34 1   
    14    8    9 1   
    15    9   10 ar  
    16   10   11 1   
    17   11   12 1   
    18   11   35 1   
    19   12   13 ar  
    20   12   30 ar  
    21   13   14 ar  
    22   13   36 1   
    23   14   15 ar  
    24   14   37 1   
    25   15   16 ar  
    26   16   17 1   
    27   16   30 ar  
    28   17   18 1   
    29   17   38 1   
    30   18   19 ar  
    31   18   23 ar  
    32   19   20 ar  
    33   19   39 1   
    34   20   21 ar  
    35   20   41 1   
    36   21   22 ar  
    37   21   42 1   
    38   22   23 ar  
    39   22   24 1   
    40   23   40 1   
    41   24   25 1   
    42   24   29 1   
    43   25   26 1   
    44   25   43 1   
    45   25   44 1   
    46   26   27 1   
    47   26   47 1   
    48   26   48 1   
    49   27   28 1   
    50   28   29 1   
    51   28   49 1   
    52   28   50 1   
    53   29   45 1   
    54   29   46 1   
@<TRIPOS>SUBSTRUCTURE
     1 7X7         1 TEMP              0 ****  ****    0 ROOT
