@<TRIPOS>MOLECULE
7X7
   50    48     1     0     0
SMALL
bcc


@<TRIPOS>ATOM
      1 CL1         5.7070   -0.2250   -4.6730 cl        1 7X7      0.003000
      2 C1          5.2900   -1.7500   -4.0650 c2        1 7X7     -0.095000
      3 C2          5.8790   -2.8960   -4.5950 c1        1 7X7     -0.112000
      4 C3          5.4820   -4.1570   -4.1400 c1        1 7X7     -0.110000
      5 C4          4.5060   -4.2670   -3.1650 c1        1 7X7      0.023000
      6 O1          3.8700   -5.4140   -2.5610 o         1 7X7     -0.213000
      7 C5          2.8970   -4.9490   -1.6720 c3        1 7X7      0.095000
      8 O2          2.9980   -3.5440   -1.6210 os        1 7X7     -0.200000
      9 C6          3.9230   -3.1320   -2.6410 c2        1 7X7      0.019000
     10 C7          4.3190   -1.8610   -3.0950 c2        1 7X7      0.057000
     11 N1          3.7750   -0.6680   -2.4780 n3        1 7X7     -0.228000
     12 C8          2.4170   -0.6160   -2.1190 c2        1 7X7      0.182000
     13 C9          1.5840   -1.6790   -2.3980 c2        1 7X7     -0.304000
     14 C10         0.2550   -1.6250   -2.0300 c1        1 7X7      0.009000
     15 N2         -0.2280   -0.5280   -1.3950 n1        1 7X7     -0.227000
     16 C11         0.6060    0.5320   -1.1170 c1        1 7X7      0.175000
     17 N3          0.0510    1.7650   -0.5750 n2        1 7X7     -0.227000
     18 C12        -0.5110    1.7770    0.7510 c2        1 7X7      0.067000
     19 C13         0.3410    1.7950    1.8690 c2        1 7X7     -0.190000
     20 C14        -0.1930    1.9470    3.1540 c1        1 7X7     -0.094000
     21 C15        -1.5680    2.0810    3.3250 c1        1 7X7     -0.188000
     22 C16        -2.4180    2.0630    2.2080 c1        1 7X7      0.061000
     23 C17        -1.8810    1.9110    0.9210 c1        1 7X7     -0.129000
     24 N4         -3.8590    2.2260    2.3780 n3        1 7X7     -0.233000
     25 C18        -4.1550    3.5750    2.6840 c3        1 7X7     -0.089000
     26 C19        -5.6520    3.7860    3.0150 c3        1 7X7     -0.026500
     27 O3         -6.1240    2.8840    4.0050 os        1 7X7     -0.272000
     28 C20        -5.8240    1.5250    3.6980 c3        1 7X7     -0.026500
     29 C21        -4.3340    1.3150    3.3740 c3        1 7X7     -0.089000
     30 N5          1.9270    0.4820   -1.4820 n2        1 7X7     -0.278000
     31 H2          6.5460   -2.8190   -5.3690 ha        1 7X7      0.158000
     32 H3          5.8790   -4.9310   -4.4970 ha        1 7X7      0.165000
     33 H5C1        3.0730   -5.3120   -0.7960 h2        1 7X7      0.117000
     34 H5C2        2.0090   -5.1980   -2.0060 h2        1 7X7      0.117000
     35 H1          4.3360    0.0850   -2.3250 hn        1 7X7      0.237000
     36 H9          1.9420   -2.4860   -2.8680 ha        1 7X7      0.162000
     37 H10        -0.3570   -2.4010   -2.2340 ha        1 7X7      0.162000
     38 HA          0.1350    2.5810   -1.0630 hn        1 7X7      0.232000
     39 H13         1.3040    1.7000    1.7490 ha        1 7X7      0.133000
     40 H17        -2.4700    1.8980    0.1470 ha        1 7X7      0.159000
     41 H14         0.4130    1.9570    3.9450 ha        1 7X7      0.132000
     42 H15        -1.9390    2.1870    4.2180 ha        1 7X7      0.134000
     43 H181       -3.9160    4.1420    1.9050 h1        1 7X7      0.089000
     44 H182       -3.6030    3.8600    3.4730 h1        1 7X7      0.089000
     45 H211       -4.2010    0.3770    3.0450 h1        1 7X7      0.089000
     46 H212       -3.7990    1.4440    4.2110 h1        1 7X7      0.089000
     47 H191       -5.7850    4.7290    3.3420 h1        1 7X7      0.094750
     48 H192       -6.1990    3.6510    2.1590 h1        1 7X7      0.094750
     49 H201       -6.3720    1.2410    2.9050 h1        1 7X7      0.094750
     50 H202       -6.0740    0.9410    4.4980 h1        1 7X7      0.094750
@<TRIPOS>BOND
     1    1    2 1   
     2    2    3 1   
     3    2   10 1   
     4    3   31 1   
     5    4    5 1   
     6    4   32 1   
     7    5    9 1   
     8    6    7 1   
     9    7    8 1   
    10    7   33 1   
    11    7   34 1   
    12    8    9 1   
    13    9   10 1   
    14   10   11 1   
    15   11   12 1   
    16   11   35 1   
    17   12   13 1   
    18   12   30 1   
    19   13   14 1   
    20   13   36 1   
    21   14   37 1   
    22   15   16 1   
    23   16   30 1   
    24   17   18 1   
    25   17   38 1   
    26   18   19 1   
    27   18   23 1   
    28   19   20 1   
    29   19   39 1   
    30   20   41 1   
    31   21   22 1   
    32   21   42 1   
    33   22   24 1   
    34   23   40 1   
    35   24   25 1   
    36   24   29 1   
    37   25   26 1   
    38   25   43 1   
    39   25   44 1   
    40   26   27 1   
    41   26   47 1   
    42   26   48 1   
    43   27   28 1   
    44   28   29 1   
    45   28   49 1   
    46   28   50 1   
    47   29   45 1   
    48   29   46 1   
@<TRIPOS>SUBSTRUCTURE
     1 7X7         1 TEMP              0 ****  ****    0 ROOT
