@<TRIPOS>MOLECULE
7X7
   52    56     1     0     0
SMALL
bcc


@<TRIPOS>ATOM
      1 CL1        -0.1170    0.0670   -0.3410 cl        1 7X7     -0.027400
      2 C1          1.5070   -0.3750   -0.1520 ca        1 7X7      0.000400
      3 C2          1.9380   -0.9480    1.0390 ca        1 7X7     -0.078000
      4 C3          3.2830   -1.3140    1.2570 ca        1 7X7     -0.038000
      5 C4          4.1650   -1.0760    0.2230 ca        1 7X7      0.093100
      6 O1          5.5250   -1.3180    0.1610 os        1 7X7     -0.285900
      7 C5          5.9960   -0.8470   -1.1260 c3        1 7X7      0.330200
      8 O2          4.8220   -0.3510   -1.8510 os        1 7X7     -0.347900
      9 C6          3.7460   -0.4920   -1.0060 ca        1 7X7      0.106100
     10 C7          2.4230   -0.1290   -1.2220 ca        1 7X7     -0.090400
     11 N1          2.0200    0.5490   -2.4470 n4        1 7X7     -0.598100
     12 C8          1.6860   -0.3840   -3.5570 ca        1 7X7      0.532200
     13 C9          1.0600   -1.6170   -3.3000 ca        1 7X7     -0.259600
     14 C10         0.7730   -2.4260   -4.4320 ca        1 7X7      0.494200
     15 N2          1.0680   -2.0580   -5.6860 nb        1 7X7     -0.621000
     16 C11         1.6750   -0.8250   -5.8260 ca        1 7X7      0.764900
     17 N3          1.9780   -0.3860   -7.2260 n4        1 7X7     -0.608100
     18 C12         0.8220    0.3000   -7.8320 ca        1 7X7     -0.016400
     19 C13         0.7440    1.6940   -7.7460 ca        1 7X7     -0.171000
     20 C14        -0.3360    2.3200   -8.3770 ca        1 7X7     -0.060000
     21 C15        -1.2920    1.5960   -9.0650 ca        1 7X7     -0.146000
     22 C16        -1.2110    0.1720   -9.1780 ca        1 7X7      0.233600
     23 C17        -0.1360   -0.4710   -8.5050 ca        1 7X7     -0.212000
     24 N4         -2.1070   -0.5420   -9.9530 nh        1 7X7     -0.635000
     25 C18        -2.0980   -1.9900   -9.8700 c3        1 7X7      0.164300
     26 C19        -3.0800   -2.6970  -10.8150 c3        1 7X7      0.116400
     27 O3         -4.3440   -2.0540  -10.8260 os        1 7X7     -0.383600
     28 C20        -4.2320   -0.7200  -11.2960 c3        1 7X7      0.116400
     29 C21        -3.3190    0.1260  -10.3980 c3        1 7X7      0.164300
     30 N5          2.0060    0.0370   -4.8210 nb        1 7X7     -0.671000
     31 H2          1.2090   -1.1180    1.8550 ha        1 7X7      0.202000
     32 H3          3.6080   -1.7610    2.2130 ha        1 7X7      0.212000
     33 H5C1        6.4160   -1.7130   -1.6950 h2        1 7X7      0.115700
     34 H5C2        6.6960    0.0110   -0.9670 h2        1 7X7      0.115700
     35 H1          2.7950    1.1750   -2.7360 hn        1 7X7      0.493800
     36 H9          0.8000   -1.9600   -2.2840 ha        1 7X7      0.219000
     37 H10         0.2840   -3.4210   -4.3170 h4        1 7X7      0.104100
     38 HA          2.2090   -1.2210   -7.7910 hn        1 7X7      0.489800
     39 H13         1.4980    2.2990   -7.2230 ha        1 7X7      0.154000
     40 H17        -0.0490   -1.5700   -8.5170 ha        1 7X7      0.160000
     41 H14        -0.4190    3.4200   -8.3240 ha        1 7X7      0.174000
     42 H15        -2.1240    2.1470   -9.5350 ha        1 7X7      0.175000
     43 H181       -2.3300   -2.3060   -8.8110 h1        1 7X7      0.055200
     44 H182       -1.0630   -2.3550  -10.1350 h1        1 7X7      0.055200
     45 H211       -3.9100    0.4600   -9.4960 h1        1 7X7      0.055200
     46 H212       -3.0230    1.0380  -10.9930 h1        1 7X7      0.055200
     47 H191       -2.6600   -2.7410  -11.8550 h1        1 7X7      0.078700
     48 H192       -3.2880   -3.7330  -10.4380 h1        1 7X7      0.078700
     49 H201       -5.2780   -0.3150  -11.2580 h1        1 7X7      0.078700
     50 H202       -3.8550   -0.7160  -12.3540 h1        1 7X7      0.078700
     51 H12         1.1770    1.1210   -2.2530 hn        1 7X7      0.493800
     52 H32         2.7850    0.2570   -7.2180 hn        1 7X7      0.489800
@<TRIPOS>BOND
     1    1    2 1   
     2    2    3 ar  
     3    2   10 ar  
     4    3    4 ar  
     5    3   31 1   
     6    4    5 ar  
     7    4   32 1   
     8    5    6 1   
     9    5    9 ar  
    10    6    7 1   
    11    7    8 1   
    12    7   33 1   
    13    7   34 1   
    14    8    9 1   
    15    9   10 ar  
    16   10   11 1   
    17   11   12 1   
    18   11   35 1   
    19   11   51 1   
    20   12   13 ar  
    21   12   30 ar  
    22   13   14 ar  
    23   13   36 1   
    24   14   15 ar  
    25   14   37 1   
    26   15   16 ar  
    27   16   17 1   
    28   16   30 ar  
    29   17   18 1   
    30   17   38 1   
    31   17   52 1   
    32   18   19 ar  
    33   18   23 ar  
    34   19   20 ar  
    35   19   39 1   
    36   20   21 ar  
    37   20   41 1   
    38   21   22 ar  
    39   21   42 1   
    40   22   23 ar  
    41   22   24 1   
    42   23   40 1   
    43   24   25 1   
    44   24   29 1   
    45   25   26 1   
    46   25   43 1   
    47   25   44 1   
    48   26   27 1   
    49   26   47 1   
    50   26   48 1   
    51   27   28 1   
    52   28   29 1   
    53   28   49 1   
    54   28   50 1   
    55   29   45 1   
    56   29   46 1   
@<TRIPOS>SUBSTRUCTURE
     1 7X7         1 TEMP              0 ****  ****    0 ROOT
