@<TRIPOS>MOLECULE
7X8
   41    40     1     0     0
SMALL
bcc


@<TRIPOS>ATOM
      1 N2         -1.4060    1.3090    0.7360 n3        1 7X8     -0.227000
      2 C7          0.0100    1.2500    0.7620 c2        1 7X8      0.174000
      3 N3          0.6690    1.2530    1.9550 n1        1 7X8     -0.230000
      4 C8          2.0100    1.2390    1.9810 c1        1 7X8     -0.152000
      5 C9          2.7140    1.2220    0.8120 c1        1 7X8     -0.152000
      6 C10         2.0540    1.2190   -0.3820 c1        1 7X8      0.176000
      7 N4          2.7840    1.2890   -1.5960 n3        1 7X8     -0.221000
      8 C11         2.7980    0.1800   -2.4810 c2        1 7X8      0.071000
      9 C12         1.9270    0.1480   -3.5780 c2        1 7X8     -0.026000
     10 O2          0.9290    1.0610   -4.0300 os        1 7X8     -0.225000
     11 C13         0.3540    0.5320   -5.1950 c3        1 7X8      0.103000
     12 O3          0.9770   -0.6940   -5.4630 os        1 7X8     -0.213000
     13 C14         1.9910   -0.8980   -4.4820 c2        1 7X8      0.028000
     14 C15         2.9270   -1.9250   -4.2990 c2        1 7X8     -0.110000
     15 C16         3.7900   -1.8930   -3.2110 c1        1 7X8     -0.119000
     16 C17         3.7260   -0.8400   -2.3000 c1        1 7X8     -0.045000
     17 CL1         4.7970   -0.8100   -0.9260 cl        1 7X8      0.015000
     18 N5          0.7130    1.2330   -0.4050 n2        1 7X8     -0.256000
     19 N1         -3.4980   -3.1290    3.8070 n         1 7X8     -0.433000
     20 C1         -4.1240   -2.0630    3.1110 c2        1 7X8      0.344000
     21 O1         -5.2000   -2.2370    2.5730 o         1 7X8     -0.372000
     22 C2         -3.4650   -0.7030    3.0590 c2        1 7X8     -0.107000
     23 C3         -3.6390    0.1920    4.1030 c2        1 7X8     -0.116000
     24 C4         -3.0710    1.4540    4.0360 c1        1 7X8     -0.131000
     25 C5         -2.3280    1.8220    2.9250 c1        1 7X8     -0.085000
     26 C6         -2.1530    0.9270    1.8810 c2        1 7X8      0.043000
     27 C18        -2.7220   -0.3350    1.9480 c2        1 7X8     -0.117000
     28 H2         -1.8350    1.6220   -0.0050 hn        1 7X8      0.238000
     29 H8          2.4810    1.2410    2.8350 ha        1 7X8      0.160000
     30 H9          3.6900    1.2120    0.8300 ha        1 7X8      0.160000
     31 H4          3.2620    2.0390   -1.7980 hn        1 7X8      0.231000
     32 H131       -0.6030    0.3810   -5.0410 h2        1 7X8      0.115000
     33 H132        0.5170    1.1470   -5.9420 h2        1 7X8      0.115000
     34 H15         2.9720   -2.6630   -4.9360 ha        1 7X8      0.162000
     35 H16         4.4410   -2.6090   -3.0840 ha        1 7X8      0.156000
     36 H1N1       -3.6490   -3.9930    3.5510 hn        1 7X8      0.226500
     37 H1N2       -2.9430   -2.9510    4.5130 hn        1 7X8      0.226500
     38 H3         -4.1630   -0.0670    4.8850 ha        1 7X8      0.135000
     39 H18        -2.6140   -0.9590    1.2040 ha        1 7X8      0.158000
     40 HA         -3.1940    2.0850    4.7710 ha        1 7X8      0.138000
     41 H5         -1.9270    2.7110    2.8780 ha        1 7X8      0.159000
@<TRIPOS>BOND
     1    1    2 1   
     2    1   26 1   
     3    1   28 1   
     4    2    3 1   
     5    2   18 1   
     6    4    5 1   
     7    4   29 1   
     8    5   30 1   
     9    6    7 1   
    10    6   18 1   
    11    7    8 1   
    12    7   31 1   
    13    8    9 1   
    14    8   16 1   
    15    9   10 1   
    16    9   13 1   
    17   10   11 1   
    18   11   12 1   
    19   11   32 1   
    20   11   33 1   
    21   12   13 1   
    22   13   14 1   
    23   14   15 1   
    24   14   34 1   
    25   15   35 1   
    26   16   17 1   
    27   19   20 1   
    28   19   36 1   
    29   19   37 1   
    30   20   21 1   
    31   20   22 1   
    32   22   23 1   
    33   22   27 1   
    34   23   24 1   
    35   23   38 1   
    36   24   40 1   
    37   25   26 1   
    38   25   41 1   
    39   26   27 1   
    40   27   39 1   
@<TRIPOS>SUBSTRUCTURE
     1 7X8         1 TEMP              0 ****  ****    0 ROOT
