@<TRIPOS>MOLECULE
7X8
   42    44     1     0     0
SMALL
bcc


@<TRIPOS>ATOM
      1 N2          0.3100    0.3560   -0.8380 nu        1 7X8     -0.185000
      2 C7          1.6840    0.0330   -0.4860 c2        1 7X8      0.191000
      3 N3          1.8720   -0.5520    0.7850 na        1 7X8     -0.287000
      4 C8          3.1770   -0.9180    1.1090 c2        1 7X8     -0.006000
      5 C9          4.2160   -0.6460    0.2820 c2        1 7X8     -0.228000
      6 C10         3.9920    0.0290   -1.0140 c2        1 7X8      0.107000
      7 N4          4.8940    0.3960   -1.8860 n2        1 7X8     -0.112000
      8 C11         6.2600    0.1710   -1.7430 c2        1 7X8     -0.053000
      9 C12         6.9240   -1.0310   -1.5590 c2        1 7X8      0.022000
     10 O2          6.1950   -2.1330   -1.1920 oh        1 7X8     -0.245000
     11 C13         9.8080   -0.7770    0.1750 c1        1 7X8     -0.005000
     12 O3          9.0050   -1.5340   -0.4370 os        1 7X8     -0.067000
     13 C14         8.4150   -1.2450   -1.7590 c3        1 7X8     -0.078000
     14 C15         9.0130   -0.1160   -2.5540 c2        1 7X8     -0.143000
     15 C16         8.3440    1.0060   -2.3840 c1        1 7X8     -0.143000
     16 C17         7.1780    1.3400   -1.8310 c2        1 7X8      0.016000
     17 Cl1         6.7700    2.8000   -1.1320 cl        1 7X8      0.064000
     18 N5          2.6310    0.3440   -1.3490 n2        1 7X8     -0.156000
     19 N1         -1.8410   -0.4630   -5.6000 nz        1 7X8     -0.149000
     20 O1         -2.8770    1.5990   -5.7820 o         1 7X8     -0.162000
     21 C2         -2.3510    0.9060   -3.4700 c3        1 7X8      0.032000
     22 C3         -3.5800    0.2720   -2.8990 c2        1 7X8     -0.242000
     23 C4         -4.6160    0.9770   -2.4480 c2        1 7X8     -0.118000
     24 C5         -0.0720   -0.5930   -3.3380 c1        1 7X8      0.029000
     25 C6         -0.1360    0.1050   -2.0590 c2        1 7X8      0.081000
     26 C18        -1.1280    0.2830   -3.0010 c2        1 7X8     -0.363000
     27 H2         -0.1350    1.0510   -0.2710 hn        1 7X8      0.267000
     28 H8          1.1090   -0.8920    1.3200 hn        1 7X8      0.258000
     29 H9          3.2920   -1.4180    2.0890 h4        1 7X8      0.176000
     30 H4          5.2450   -0.9340    0.5460 ha        1 7X8      0.185000
     31 H131        6.8090   -2.8760   -1.0720 ho        1 7X8      0.239000
     32 H132       10.1480    0.1980   -0.2250 ha        1 7X8      0.068000
     33 H15         8.5780   -2.2000   -2.3360 h1        1 7X8      0.149000
     34 H16         9.8060   -0.3230   -3.2790 ha        1 7X8      0.175000
     35 H1N1       -2.3650   -1.2720   -5.2550 hn        1 7X8      0.273333
     36 H1N2       -1.8970   -0.4290   -6.6230 hn        1 7X8      0.273333
     37 H3         -3.5560   -0.8280   -2.8400 ha        1 7X8      0.141000
     38 H18        -2.3440    2.0190   -3.2470 hc        1 7X8      0.171000
     39 HA         -4.6610    2.0760   -2.4790 ha        1 7X8      0.144000
     40 H5         -5.5020    0.4880   -2.0140 ha        1 7X8      0.144000
     41 H13        -0.8470   -0.5830   -5.3080 hn        1 7X8      0.273333
     42 C1         -2.4130    0.7950   -4.9930 c2        1 7X8      0.264000
@<TRIPOS>BOND
     1    1    2 1   
     2    1   25 1   
     3    1   27 1   
     4    2    3 1   
     5    2   18 1   
     6    3    4 1   
     7    3   28 1   
     8    4    5 1   
     9    4   29 1   
    10    5    6 1   
    11    5   30 1   
    12    6    7 1   
    13    6   18 1   
    14    7    8 1   
    15    8    9 1   
    16    8   16 1   
    17    9   10 1   
    18    9   13 1   
    19   10   31 1   
    20   11   12 1   
    21   11   32 1   
    22   12   13 1   
    23   13   14 1   
    24   13   33 1   
    25   14   15 1   
    26   14   34 1   
    27   15   16 1   
    28   16   17 1   
    29   19   35 1   
    30   19   36 1   
    31   19   41 1   
    32   19   42 1   
    33   20   42 1   
    34   21   22 1   
    35   21   26 1   
    36   21   38 1   
    37   21   42 1   
    38   22   23 1   
    39   22   37 1   
    40   23   39 1   
    41   23   40 1   
    42   24   25 1   
    43   24   26 1   
    44   25   26 1   
@<TRIPOS>SUBSTRUCTURE
     1 7X8         1 TEMP              0 ****  ****    0 ROOT
