@<TRIPOS>MOLECULE
7X8
   44    45     1     0     0
SMALL
bcc


@<TRIPOS>ATOM
      1 N2          1.1210    1.1960   -2.4080 n4        1 7X8      0.100000
      2 C7          2.2640    0.6210   -1.5920 c2        1 7X8      0.063000
      3 N3          1.9580    0.2030   -0.2740 na        1 7X8     -0.248000
      4 C8          3.0670   -0.3130    0.4330 c2        1 7X8     -0.018000
      5 C9          4.2920   -0.4640   -0.1280 c2        1 7X8     -0.149000
      6 C10         4.5190   -0.0300   -1.5100 c2        1 7X8     -0.029000
      7 N4          5.6930   -0.0500   -2.1760 nh        1 7X8      0.093000
      8 C11         6.9290   -0.4930   -1.8360 c2        1 7X8     -0.244000
      9 C12         7.3120   -1.4110   -0.7610 c2        1 7X8      0.259000
     10 O2          6.5690   -2.2710   -0.2620 o         1 7X8     -0.322000
     11 C13         9.0430   -3.7790    0.0370 c2        1 7X8      0.244000
     12 O3          9.3970   -2.6980   -0.5540 os        1 7X8     -0.053000
     13 C14         8.7710   -1.3920   -0.2200 c3        1 7X8      0.007000
     14 C15         9.6160   -0.3000   -0.8090 c2        1 7X8     -0.125000
     15 C16         9.1660    0.0430   -1.9980 c1        1 7X8     -0.025000
     16 C17         8.0740   -0.1780   -2.7280 c2        1 7X8     -0.031000
     17 CL1         7.9410   -0.2480   -4.3850 cl        1 7X8      0.116000
     18 N5          3.4020    0.4770   -2.2330 n2        1 7X8     -0.130000
     19 N1         -4.0500    2.2750   -4.3610 n4        1 7X8     -0.137000
     20 O1         -1.9440    2.8720   -3.5920 o         1 7X8     -0.215000
     21 C2         -2.4680    0.5220   -3.4920 c2        1 7X8     -0.247000
     22 C3         -6.5370    0.3440   -3.0070 c1        1 7X8     -0.231000
     23 C4         -5.9270   -0.1460   -3.9160 c1        1 7X8     -0.231000
     24 C5         -0.4300   -0.9750   -2.5760 cu        1 7X8      0.137000
     25 C6          0.0630    0.2770   -2.6000 cu        1 7X8     -0.202000
     26 C18        -1.2970    0.0970   -3.0300 cu        1 7X8      0.071000
     27 H2          1.4860    1.4850   -3.3410 hn        1 7X8      0.299500
     28 H8          1.2990    0.7350    0.2610 hn        1 7X8      0.259000
     29 H9          2.8320   -0.6140    1.4750 h4        1 7X8      0.218000
     30 H4          5.1110   -0.9150    0.4520 ha        1 7X8      0.208000
     31 H131        8.2470   -3.8170    0.8120 h4        1 7X8      0.220500
     32 H132        9.6010   -4.6900   -0.2990 h4        1 7X8      0.220500
     33 H15         8.7440   -1.3030    0.9030 h1        1 7X8      0.175000
     34 H16        10.4100    0.1650   -0.2110 ha        1 7X8      0.219000
     35 H1N1       -4.2110    3.2920   -4.2960 hn        1 7X8      0.285333
     36 H1N2       -4.0780    2.0030   -5.3520 hn        1 7X8      0.285333
     37 H3         -7.0970    0.7640   -2.2000 ha        1 7X8      0.243500
     38 H18        -3.2920   -0.2050   -3.6520 ha        1 7X8      0.219000
     39 HA         -0.3230   -2.0360   -2.3780 ha        1 7X8      0.270000
     40 H5         -5.4970   -0.6770   -4.7310 ha        1 7X8      0.243500
     41 H22         0.7610    2.0390   -1.9240 hn        1 7X8      0.299500
     42 H42         5.6830    0.3910   -3.0980 hn        1 7X8      0.285000
     43 H13        -4.8090    1.7700   -3.8630 hn        1 7X8      0.285333
     44 C1         -2.7100    1.9310   -3.7770 c2        1 7X8      0.311000
@<TRIPOS>BOND
     1    1    2 1   
     2    1   25 1   
     3    1   27 1   
     4    1   41 1   
     5    2    3 1   
     6    2   18 1   
     7    3    4 1   
     8    3   28 1   
     9    4    5 1   
    10    4   29 1   
    11    5    6 1   
    12    5   30 1   
    13    6    7 1   
    14    6   18 1   
    15    7    8 1   
    16    7   42 1   
    17    8    9 1   
    18    8   16 1   
    19    9   10 1   
    20    9   13 1   
    21   11   12 1   
    22   11   31 1   
    23   11   32 1   
    24   12   13 1   
    25   13   14 1   
    26   13   33 1   
    27   14   15 1   
    28   14   34 1   
    29   15   16 1   
    30   16   17 1   
    31   19   35 1   
    32   19   36 1   
    33   19   43 1   
    34   19   44 1   
    35   20   44 1   
    36   21   26 1   
    37   21   38 1   
    38   21   44 1   
    39   22   23 1   
    40   22   37 1   
    41   23   40 1   
    42   24   25 1   
    43   24   26 1   
    44   24   39 1   
    45   25   26 1   
@<TRIPOS>SUBSTRUCTURE
     1 7X8         1 TEMP              0 ****  ****    0 ROOT
