@<TRIPOS>MOLECULE
7X8
   41    44     1     0     0
SMALL
bcc


@<TRIPOS>ATOM
      1 N2         13.7600    7.3250   10.9840 nh        1 7X8     -0.708300
      2 C7         13.2220    6.2070   11.6670 ca        1 7X8      0.886900
      3 N3         14.1350    5.2230   12.0400 nb        1 7X8     -0.764000
      4 C8         13.6080    4.1220   12.5950 ca        1 7X8      0.476200
      5 C9         12.2390    3.9350   12.8250 ca        1 7X8     -0.432600
      6 C10        11.3720    5.0010   12.4480 ca        1 7X8      0.703200
      7 N4          9.9930    4.9730   12.7330 nh        1 7X8     -0.705300
      8 C11         9.3020    3.7460   12.7790 ca        1 7X8      0.137600
      9 C12         9.3820    2.8750   13.8650 ca        1 7X8      0.063100
     10 O2         10.1740    2.9830   15.0030 os        1 7X8     -0.318900
     11 C13         9.8780    1.8350   15.8320 c3        1 7X8      0.318200
     12 O3          8.9020    1.0280   15.1330 os        1 7X8     -0.330900
     13 C14         8.6120    1.6850   13.9430 ca        1 7X8      0.066100
     14 C15         7.7260    1.3110   12.9560 ca        1 7X8     -0.110000
     15 C16         7.6250    2.1760   11.8530 ca        1 7X8     -0.113000
     16 C17         8.3810    3.3420   11.7600 ca        1 7X8     -0.017600
     17 CL1         8.1880    4.3260   10.3890 cl        1 7X8     -0.063400
     18 N5         11.8600    6.1390   11.8570 nb        1 7X8     -0.783000
     19 N1          9.5880   10.7900    8.3390 n         1 7X8     -0.675000
     20 O1          9.0220    8.8410    9.3540 o         1 7X8     -0.607100
     21 C2         11.1530    9.7810    9.9420 ca        1 7X8     -0.131600
     22 C3         11.6960   10.9730   10.4280 ca        1 7X8     -0.119000
     23 C4         12.9090   10.9440   11.1130 ca        1 7X8     -0.123000
     24 C5         13.5780    9.7420   11.3220 ca        1 7X8     -0.149000
     25 C6         13.0330    8.5300   10.8420 ca        1 7X8      0.129600
     26 C18        11.8060    8.5630   10.1460 ca        1 7X8     -0.059000
     27 H2         14.7420    7.4560   11.1300 hn        1 7X8      0.437800
     28 H8         14.3380    3.3410   12.8790 h4        1 7X8      0.026100
     29 H9         11.8610    3.0230   13.2990 ha        1 7X8      0.164000
     30 H4          9.4560    5.7160   12.3210 hn        1 7X8      0.449800
     31 H131       10.8130    1.2350   15.9580 h2        1 7X8      0.076200
     32 H132        9.4260    2.1920   16.7900 h2        1 7X8      0.076200
     33 H15         7.1290    0.3920   13.0230 ha        1 7X8      0.164000
     34 H16         6.9270    1.9150   11.0410 ha        1 7X8      0.158000
     35 H1N1        8.7470   10.7810    7.8180 hn        1 7X8      0.312000
     36 H1N2       10.2580   11.4890    8.1550 hn        1 7X8      0.312000
     37 H3         11.1710   11.9300   10.2930 ha        1 7X8      0.135000
     38 H18        11.3410    7.6390    9.7630 ha        1 7X8      0.175000
     39 HA         13.3410   11.8790   11.5010 ha        1 7X8      0.137000
     40 H5         14.5350    9.7460   11.8660 ha        1 7X8      0.136000
     41 C1          9.8550    9.7590    9.2080 c         1 7X8      0.671700
@<TRIPOS>BOND
     1    1    2 1   
     2    1   25 1   
     3    1   27 1   
     4    2    3 ar  
     5    2   18 ar  
     6    3    4 ar  
     7    4    5 ar  
     8    4   28 1   
     9    5    6 ar  
    10    5   29 1   
    11    6    7 1   
    12    6   18 ar  
    13    7    8 1   
    14    7   30 1   
    15    8    9 ar  
    16    8   16 ar  
    17    9   10 1   
    18    9   13 ar  
    19   10   11 1   
    20   11   12 1   
    21   11   31 1   
    22   11   32 1   
    23   12   13 1   
    24   13   14 ar  
    25   14   15 ar  
    26   14   33 1   
    27   15   16 ar  
    28   15   34 1   
    29   16   17 1   
    30   19   35 1   
    31   19   36 1   
    32   19   41 1   
    33   20   41 2   
    34   21   22 ar  
    35   21   26 ar  
    36   21   41 1   
    37   22   23 ar  
    38   22   37 1   
    39   23   24 ar  
    40   23   39 1   
    41   24   25 ar  
    42   24   40 1   
    43   25   26 ar  
    44   26   38 1   
@<TRIPOS>SUBSTRUCTURE
     1 7X8         1 TEMP              0 ****  ****    0 ROOT
