@<TRIPOS>MOLECULE
7X8
   42    44     1     0     0
SMALL
bcc


@<TRIPOS>ATOM
      1 N2          0.3290    0.5130   -0.8170 nh        1 7X8     -0.188000
      2 C7          1.7090    0.2700   -0.4290 c2        1 7X8      0.203000
      3 N3          1.9090   -0.1870    0.8900 na        1 7X8     -0.283000
      4 C8          3.2200   -0.4810    1.2560 c2        1 7X8      0.004000
      5 C9          4.2570   -0.2600    0.4100 c2        1 7X8     -0.233000
      6 C10         4.0180    0.2880   -0.9430 c2        1 7X8      0.157000
      7 N4          4.9250    0.6170   -1.8210 n2        1 7X8     -0.151000
      8 C11         6.2980    0.4700   -1.6540 c2        1 7X8      0.123000
      9 C12         6.9210   -0.8660   -1.5470 c2        1 7X8      0.041000
     10 O2          6.0500   -1.8910   -1.3140 oh        1 7X8     -0.296000
     11 C13         8.2850   -3.3080   -1.4010 c1        1 7X8     -0.103000
     12 O3          8.9810   -2.2080   -1.5700 os        1 7X8     -0.095000
     13 C14         8.2760   -0.9910   -1.6560 c2        1 7X8     -0.090000
     14 C15         9.1870    0.1590   -1.8640 c3        1 7X8     -0.163000
     15 C16         8.5510    1.4610   -1.8870 c1        1 7X8     -0.058000
     16 C17         7.1530    1.5680   -1.7410 c2        1 7X8     -0.161000
     17 CL1         6.5160    3.1440   -1.7230 cl        1 7X8      0.020000
     18 N5          2.6540    0.5190   -1.3170 n2        1 7X8     -0.162000
     19 N1         -1.6970   -0.6940   -5.5560 n4        1 7X8     -0.148000
     20 O1         -2.7990    1.3150   -5.8850 o         1 7X8     -0.160000
     21 C2         -2.2980    0.7870   -3.5260 c3        1 7X8      0.031000
     22 C3         -3.5150    0.1470   -2.9390 c2        1 7X8     -0.243000
     23 C4         -4.5860    0.8410   -2.5560 c2        1 7X8     -0.117000
     24 C5          0.0270   -0.6230   -3.2500 c1        1 7X8      0.037000
     25 C6         -0.0870    0.1610   -2.0250 c2        1 7X8      0.078000
     26 C18        -1.0650    0.2390   -2.9940 c2        1 7X8     -0.358000
     27 H2         -0.1480    1.2320   -0.3090 hn        1 7X8      0.267000
     28 H8          1.1510   -0.4500    1.4750 hn        1 7X8      0.263000
     29 H9          3.3420   -0.8880    2.2760 h4        1 7X8      0.179000
     30 H4          5.2910   -0.5110    0.6890 ha        1 7X8      0.186000
     31 H131        6.5570   -2.7500   -1.3410 ho        1 7X8      0.291000
     32 H132        8.9890   -4.1710   -1.3650 ha        1 7X8      0.086000
     33 H15         9.9860    0.1720   -1.0630 hc        1 7X8      0.179000
     34 H16         9.7430    0.0400   -2.8450 hc        1 7X8      0.179000
     35 H1N1       -2.1960   -1.4990   -5.1660 hn        1 7X8      0.273667
     36 H1N2       -1.7370   -0.7280   -6.5800 hn        1 7X8      0.273667
     37 H3         -3.4550   -0.9460   -2.8090 ha        1 7X8      0.141000
     38 H18        -2.3340    1.9120   -3.3740 hc        1 7X8      0.171000
     39 HA         -4.6680    1.9330   -2.6580 ha        1 7X8      0.144000
     40 H5         -5.4630    0.3480   -2.1080 ha        1 7X8      0.144000
     41 H13        -0.7050   -0.7570   -5.2440 hn        1 7X8      0.273667
     42 C1         -2.3240    0.5780   -5.0390 c2        1 7X8      0.264000
@<TRIPOS>BOND
     1    1    2 1   
     2    1   25 1   
     3    1   27 1   
     4    2    3 1   
     5    2   18 1   
     6    3    4 1   
     7    3   28 1   
     8    4    5 1   
     9    4   29 1   
    10    5    6 1   
    11    5   30 1   
    12    6    7 1   
    13    6   18 1   
    14    7    8 1   
    15    8    9 1   
    16    8   16 1   
    17    9   10 1   
    18    9   13 1   
    19   10   31 1   
    20   11   12 1   
    21   11   32 1   
    22   12   13 1   
    23   13   14 1   
    24   14   15 1   
    25   14   33 1   
    26   14   34 1   
    27   15   16 1   
    28   16   17 1   
    29   19   35 1   
    30   19   36 1   
    31   19   41 1   
    32   19   42 1   
    33   20   42 1   
    34   21   22 1   
    35   21   26 1   
    36   21   38 1   
    37   21   42 1   
    38   22   23 1   
    39   22   37 1   
    40   23   39 1   
    41   23   40 1   
    42   24   25 1   
    43   24   26 1   
    44   25   26 1   
@<TRIPOS>SUBSTRUCTURE
     1 7X8         1 TEMP              0 ****  ****    0 ROOT
