@<TRIPOS>MOLECULE
7XA
   29    28     1     0     0
SMALL
bcc


@<TRIPOS>ATOM
      1 O10         1.7270    0.8660   -0.6150 oh        1 7XA     -0.365300
      2 N9          1.2160   -0.2230   -0.0010 n4        1 7XA     -0.479300
      3 C8          1.9940   -0.4240    1.3470 c         1 7XA      0.588100
      4 O11         1.2740   -0.8360    2.2300 o         1 7XA     -0.371100
      5 C7          3.4460   -0.0760    1.3080 c3        1 7XA     -0.136400
      6 C6          4.0780   -0.3190    2.6690 c3        1 7XA     -0.087400
      7 C5          5.5430    0.0700    2.6520 c3        1 7XA     -0.078400
      8 C4          6.1660   -0.1660    4.0160 c3        1 7XA     -0.079400
      9 C3          7.6320    0.2260    4.0160 c3        1 7XA     -0.109400
     10 C2          8.2160   -0.0230    5.4030 c3        1 7XA      0.098800
     11 N1          9.6620    0.3360    5.5010 n4        1 7XA     -0.838600
     12 H1          1.1630    1.0990   -1.3910 ho        1 7XA      0.485000
     13 HN9         0.2060   -0.1080    0.2090 hn        1 7XA      0.470300
     14 H71         3.9570   -0.6930    0.5180 hc        1 7XA      0.119700
     15 H72         3.5470    1.0080    1.0100 hc        1 7XA      0.119700
     16 H62         3.5340    0.2790    3.4490 hc        1 7XA      0.076700
     17 H61         3.9730   -1.4020    2.9460 hc        1 7XA      0.076700
     18 H52         6.0880   -0.5330    1.8780 hc        1 7XA      0.060200
     19 H51         5.6460    1.1510    2.3710 hc        1 7XA      0.060200
     20 H41         5.6140    0.4340    4.7880 hc        1 7XA      0.065700
     21 H42         6.0620   -1.2490    4.2930 hc        1 7XA      0.065700
     22 H32         7.7310    1.3090    3.7380 hc        1 7XA      0.073700
     23 H31         8.1810   -0.3790    3.2460 hc        1 7XA      0.073700
     24 H21         7.6600    0.5900    6.1720 hx        1 7XA      0.117700
     25 H22         8.1170   -1.1150    5.6730 hx        1 7XA      0.117700
     26 HN11        9.7980    1.3300    5.2880 hn        1 7XA      0.467467
     27 HN13       10.2130   -0.2180    4.8350 hn        1 7XA      0.467467
     28 H92         1.3440   -1.0650   -0.5910 hn        1 7XA      0.470300
     29 H13        10.0040    0.1500    6.4510 hn        1 7XA      0.467467
@<TRIPOS>BOND
     1    1    2 1   
     2    1   12 1   
     3    2    3 1   
     4    2   13 1   
     5    2   28 1   
     6    3    4 2   
     7    3    5 1   
     8    5    6 1   
     9    5   14 1   
    10    5   15 1   
    11    6    7 1   
    12    6   16 1   
    13    6   17 1   
    14    7    8 1   
    15    7   18 1   
    16    7   19 1   
    17    8    9 1   
    18    8   20 1   
    19    8   21 1   
    20    9   10 1   
    21    9   22 1   
    22    9   23 1   
    23   10   11 1   
    24   10   24 1   
    25   10   25 1   
    26   11   26 1   
    27   11   27 1   
    28   11   29 1   
@<TRIPOS>SUBSTRUCTURE
     1 7XA         1 TEMP              0 ****  ****    0 ROOT
