@<TRIPOS>MOLECULE
7XA
   29    28     1     0     0
SMALL
bcc


@<TRIPOS>ATOM
      1 O10         1.7400    0.8140   -0.6410 oh        1 7XA     -0.365300
      2 N9          1.2220   -0.2590   -0.0060 ny        1 7XA     -0.479300
      3 C8          1.9960   -0.4360    1.3480 c         1 7XA      0.588100
      4 O11         1.2710   -0.8260    2.2380 o         1 7XA     -0.371100
      5 C7          3.4490   -0.0980    1.3050 c3        1 7XA     -0.136400
      6 C6          4.0760   -0.3160    2.6720 c3        1 7XA     -0.087400
      7 C5          5.5440    0.0640    2.6510 c3        1 7XA     -0.078400
      8 C4          6.1620   -0.1460    4.0200 c3        1 7XA     -0.079400
      9 C3          7.6310    0.2360    4.0160 c3        1 7XA     -0.109400
     10 C2          8.2100    0.0130    5.4090 c3        1 7XA      0.098800
     11 N1          9.6580    0.3660    5.5030 nz        1 7XA     -0.838600
     12 H1          1.1790    1.0340   -1.4230 ho        1 7XA      0.485000
     13 HN9         1.3460   -1.1130   -0.5790 hn        1 7XA      0.470300
     14 H71         3.9590   -0.7340    0.5290 hc        1 7XA      0.119700
     15 H72         3.5570    0.9790    0.9850 hc        1 7XA      0.119700
     16 H62         3.5340    0.3010    3.4380 hc        1 7XA      0.076700
     17 H61         3.9650   -1.3920    2.9710 hc        1 7XA      0.076700
     18 H52         5.6540    1.1390    2.3480 hc        1 7XA      0.060200
     19 H51         6.0870   -0.5580    1.8910 hc        1 7XA      0.060200
     20 H41         6.0520   -1.2230    4.3200 hc        1 7XA      0.065700
     21 H42         5.6120    0.4720    4.7790 hc        1 7XA      0.065700
     22 H32         8.1780   -0.3870    3.2600 hc        1 7XA      0.073700
     23 H31         7.7370    1.3130    3.7160 hc        1 7XA      0.073700
     24 H21         7.6560    0.6450    6.1640 hx        1 7XA      0.117700
     25 H22         8.1040   -1.0730    5.7020 hx        1 7XA      0.117700
     26 HN11       10.2070   -0.2050    4.8510 hn        1 7XA      0.467467
     27 HN13        9.9970    0.1980    6.4580 hn        1 7XA      0.467467
     28 H92         0.2110   -0.1340    0.1990 hn        1 7XA      0.470300
     29 H13         9.8000    1.3550    5.2700 hn        1 7XA      0.467467
@<TRIPOS>BOND
     1    1    2 1   
     2    1   12 1   
     3    2    3 1   
     4    2   13 1   
     5    2   28 1   
     6    3    4 2   
     7    3    5 1   
     8    5    6 1   
     9    5   14 1   
    10    5   15 1   
    11    6    7 1   
    12    6   16 1   
    13    6   17 1   
    14    7    8 1   
    15    7   18 1   
    16    7   19 1   
    17    8    9 1   
    18    8   20 1   
    19    8   21 1   
    20    9   10 1   
    21    9   22 1   
    22    9   23 1   
    23   10   11 1   
    24   10   24 1   
    25   10   25 1   
    26   11   26 1   
    27   11   27 1   
    28   11   29 1   
@<TRIPOS>SUBSTRUCTURE
     1 7XA         1 TEMP              0 ****  ****    0 ROOT
