@<TRIPOS>MOLECULE
7XY
   65    59     1     0     0
SMALL
bcc


@<TRIPOS>ATOM
      1 CAV         4.6670   -6.7080   -0.9680 c1        1 7XY     -0.124000
      2 CBE         4.2790   -8.1690   -0.8570 c1        1 7XY     -0.068000
      3 CLF         3.8630   -9.0730   -2.2920 cl        1 7XY     -0.045000
      4 CAN         4.2090   -8.8350    0.5060 c1        1 7XY     -0.134000
      5 CAM         4.4550   -8.0220    1.7570 c1        1 7XY     -0.129667
      6 CAO         4.8400   -6.5600    1.6460 c1        1 7XY     -0.129667
      7 CBF         4.9120   -5.8950    0.2810 c1        1 7XY     -0.075000
      8 CAY         5.3030   -4.3980    0.1660 c3        1 7XY      0.009000
      9 NBL         4.1030   -3.5860    0.1350 n         1 7XY     -0.335000
     10 CBD         3.1280   -3.7160    1.1700 c2        1 7XY      0.254000
     11 OAB         3.4200   -3.4400    2.3200 o         1 7XY     -0.381000
     12 CBC         1.7280   -4.2230    0.8390 c2        1 7XY      0.350000
     13 OAE         0.7870   -4.0630    1.6670 o         1 7XY     -0.513500
     14 OAA         1.5270   -4.8630   -0.2230 o         1 7XY     -0.513500
     15 CAZ         3.9570   -2.5510   -0.8710 c3        1 7XY      0.056000
     16 CBG         3.8250   -1.1760   -0.1800 c2        1 7XY     -0.509000
     17 SBB         2.2720   -0.4320   -0.0230 ss        1 7XY      1.150000
     18 CAT         4.8740   -0.1010   -0.4210 c1        1 7XY     -0.197000
     19 CAU         4.2480    1.3370   -0.4530 c1        1 7XY     -0.048000
     20 CBJ         2.7210    1.2420   -0.2280 c2        1 7XY     -1.396000
     21 SBM         1.6160    2.3700   -1.0840 s4        1 7XY      2.133800
     22 OAC         1.1860    1.8220   -2.3430 o         1 7XY     -0.573900
     23 OAD         2.3110    3.5550   -1.5170 o         1 7XY     -0.573900
     24 NBA         0.3060    2.7550   -0.1080 n2        1 7XY     -0.886000
     25 CAW        -0.8230    3.4830   -0.6660 c3        1 7XY     -0.010000
     26 CAX        -2.0500    3.3260    0.2620 c3        1 7XY     -0.192000
     27 CBK        -3.2600    4.0780   -0.3510 c3        1 7XY     -0.017000
     28 CBI        -4.0430    4.8000    0.7720 c2        1 7XY     -0.068500
     29 CAR        -3.8620    4.3750    2.2160 c1        1 7XY     -0.119000
     30 CAK        -4.6490    5.0670    3.3150 c1        1 7XY     -0.129667
     31 CAH        -5.5920    6.2020    2.9720 c1        1 7XY     -0.129667
     32 CAL        -5.7740    6.6270    1.5270 c1        1 7XY     -0.136500
     33 CAS        -4.9860    5.9370    0.4290 c2        1 7XY     -0.122500
     34 CBH        -4.1810    3.0770   -1.0520 c2        1 7XY     -0.068500
     35 CAP        -4.5590    3.2840   -2.5040 c1        1 7XY     -0.119000
     36 CAI        -5.4610    2.2870   -3.2000 c1        1 7XY     -0.129667
     37 CAG        -6.0450    1.1220   -2.4230 c1        1 7XY     -0.129667
     38 CAJ        -5.7340    0.9630   -0.9510 c1        1 7XY     -0.136500
     39 CAQ        -4.7750    1.9190   -0.2720 c2        1 7XY     -0.122500
     40 HAV         4.7130   -6.2810   -1.8440 ha        1 7XY      0.143000
     41 HAN         3.9590   -9.7800    0.5780 ha        1 7XY      0.136000
     42 HAM         4.4140   -8.4540    2.6380 ha        1 7XY      0.133500
     43 HAO         4.9990   -6.0350    2.4540 ha        1 7XY      0.133500
     44 HAY1        5.8480   -4.1440    0.9360 h1        1 7XY      0.103000
     45 HAY2        5.8140   -4.2570   -0.6550 h1        1 7XY      0.103000
     46 HAZ1        3.1590   -2.7250   -1.4040 h1        1 7XY      0.098500
     47 HAZ2        4.7450   -2.5480   -1.4540 h1        1 7XY      0.098500
     48 HAT         5.8300   -0.2860   -0.5410 ha        1 7XY      0.132000
     49 HAU         4.7480    2.0950   -0.0960 ha        1 7XY      0.143000
     50 HNBA        0.3370    2.5800    0.7820 hn        1 7XY      0.229000
     51 HAW1       -1.0380    3.1220   -1.5580 h1        1 7XY      0.088500
     52 HAW2       -0.5930    4.4280   -0.7450 h1        1 7XY      0.088500
     53 HAX1       -1.8450    3.7010    1.1380 hc        1 7XY      0.107500
     54 HAX2       -2.2710    2.3710    0.3580 hc        1 7XY      0.107500
     55 HBK        -2.9440    4.7280   -0.9940 hc        1 7XY      0.081000
     56 HAR        -3.2390    3.6590    2.4400 ha        1 7XY      0.150500
     57 HAK        -4.5320    4.7950    4.2410 ha        1 7XY      0.133500
     58 HAH        -6.1090    6.6400    3.6810 ha        1 7XY      0.133500
     59 HAL        -6.3830    7.3600    1.3060 ha        1 7XY      0.123500
     60 HAS        -5.0980    6.2120   -0.4930 ha        1 7XY      0.152000
     61 HAP        -4.2900    4.0930   -2.9620 ha        1 7XY      0.150500
     62 HAI        -5.7040    2.4210   -4.1340 ha        1 7XY      0.133500
     63 HAG        -6.5840    0.4500   -2.8840 ha        1 7XY      0.133500
     64 HAJ        -6.1870    0.2820   -0.4310 ha        1 7XY      0.123500
     65 HAQ        -4.4940    1.7560    0.6470 ha        1 7XY      0.152000
@<TRIPOS>BOND
     1    1    7 1   
     2    1   40 1   
     3    2    3 1   
     4    2    4 1   
     5    4   41 1   
     6    5    6 1   
     7    5   42 1   
     8    6   43 1   
     9    7    8 1   
    10    8    9 1   
    11    8   44 1   
    12    8   45 1   
    13    9   10 1   
    14    9   15 1   
    15   10   11 1   
    16   10   12 1   
    17   12   13 1   
    18   12   14 1   
    19   15   16 1   
    20   15   46 1   
    21   15   47 1   
    22   16   17 1   
    23   16   18 1   
    24   17   20 1   
    25   18   48 1   
    26   19   20 1   
    27   19   49 1   
    28   20   21 1   
    29   21   22 1   
    30   21   23 1   
    31   24   25 1   
    32   24   50 1   
    33   25   26 1   
    34   25   51 1   
    35   25   52 1   
    36   26   27 1   
    37   26   53 1   
    38   26   54 1   
    39   27   28 1   
    40   27   34 1   
    41   27   55 1   
    42   28   29 1   
    43   28   33 1   
    44   29   56 1   
    45   30   31 1   
    46   30   57 1   
    47   31   58 1   
    48   32   33 1   
    49   32   59 1   
    50   33   60 1   
    51   34   35 1   
    52   34   39 1   
    53   35   61 1   
    54   36   37 1   
    55   36   62 1   
    56   37   63 1   
    57   38   39 1   
    58   38   64 1   
    59   39   65 1   
@<TRIPOS>SUBSTRUCTURE
     1 7XY         1 TEMP              0 ****  ****    0 ROOT
