@<TRIPOS>MOLECULE
7XY
   67    69     1     0     0
SMALL
bcc


@<TRIPOS>ATOM
      1 CAV         0.6160   -0.5120    0.6710 ca        1 7XY     -0.101000
      2 CBE         1.8740   -0.0310    1.0510 ca        1 7XY     -0.059000
      3 CLF         3.2610   -0.6090    0.2700 cl        1 7XY      0.024000
      4 CAN         1.9920    0.9230    2.0680 ca        1 7XY     -0.098000
      5 CAM         0.8440    1.3960    2.7030 ca        1 7XY     -0.113000
      6 CAO        -0.4130    0.9210    2.3310 ca        1 7XY     -0.130000
      7 CBF        -0.5280   -0.0340    1.3170 ca        1 7XY     -0.136000
      8 CAY        -1.8690   -0.5410    0.8850 c3        1 7XY     -0.074000
      9 NBL        -2.3940   -1.6480    1.7200 n4        1 7XY     -0.116000
     10 CBD        -2.9330   -2.8410    0.7410 c1        1 7XY      0.039000
     11 OAB        -4.0700   -3.2030    0.9260 o         1 7XY     -0.329000
     12 CBC        -1.2490   -3.7640   -1.0000 c1        1 7XY      0.443000
     13 OAE        -1.1120   -2.6790   -1.4810 o         1 7XY     -0.225500
     14 OAA        -1.3260   -4.8690   -0.5750 o         1 7XY     -0.225500
     15 CAZ        -3.2660   -1.1730    2.8220 c3        1 7XY     -0.098000
     16 CBG        -4.5440   -0.5480    2.3850 c2        1 7XY     -0.347000
     17 SBB        -4.7710    1.0390    2.0960 ss        1 7XY      0.914000
     18 CAT        -5.7360   -1.2800    2.2130 c2        1 7XY     -0.129000
     19 CAU        -6.7870   -0.4440    1.8430 c2        1 7XY     -0.006000
     20 CBJ        -6.3890    0.9270    1.7290 c2        1 7XY     -1.403000
     21 SBM        -7.4670    2.0280    1.4090 s6        1 7XY      2.878000
     22 OAC        -8.7730    1.6650    1.6610 o         1 7XY     -0.860500
     23 OAD        -7.0430    3.3280    1.6180 o         1 7XY     -0.860500
     24 NBA        -7.4170    1.9950   -0.4990 n4        1 7XY     -0.468000
     25 CAW        -8.3410    1.0160   -1.1140 c3        1 7XY     -0.129000
     26 CAX        -8.5830    1.2200   -2.6040 c3        1 7XY     -0.183000
     27 CBK        -7.3390    1.5870   -3.4080 c3        1 7XY     -0.024000
     28 CBI        -6.1380    0.7630   -3.0550 ca        1 7XY     -0.103000
     29 CAR        -4.8910    1.3960   -2.9550 ca        1 7XY     -0.131000
     30 CAK        -3.7430    0.6540   -2.6800 ca        1 7XY     -0.121250
     31 CAH        -3.8270   -0.7260   -2.4940 ca        1 7XY     -0.117500
     32 CAL        -5.0660   -1.3610   -2.5850 ca        1 7XY     -0.121250
     33 CAS        -6.2150   -0.6220   -2.8640 ca        1 7XY     -0.131000
     34 CBH        -7.6490    1.5210   -4.8760 ca        1 7XY     -0.103000
     35 CAP        -7.6160    2.6960   -5.6370 ca        1 7XY     -0.131000
     36 CAI        -7.9080    2.6580   -7.0000 ca        1 7XY     -0.121250
     37 CAG        -8.2350    1.4490   -7.6130 ca        1 7XY     -0.117500
     38 CAJ        -8.2670    0.2750   -6.8600 ca        1 7XY     -0.121250
     39 CAQ        -7.9750    0.3100   -5.4970 ca        1 7XY     -0.131000
     40 HAV         0.5220   -1.2560   -0.1390 ha        1 7XY      0.166000
     41 HAN         2.9840    1.3000    2.3650 ha        1 7XY      0.165000
     42 HAM         0.9340    2.1500    3.5010 ha        1 7XY      0.151000
     43 HAO        -1.3110    1.3090    2.8330 ha        1 7XY      0.118000
     44 HAY1       -2.6130    0.3080    0.8880 hx        1 7XY      0.122000
     45 HAY2       -1.7980   -0.9340   -0.1760 hx        1 7XY      0.122000
     46 HAZ1       -3.5200   -2.0830    3.4470 hx        1 7XY      0.132500
     47 HAZ2       -2.7010   -0.4440    3.4750 hx        1 7XY      0.132500
     48 HAT        -5.8050   -2.3720    2.3220 ha        1 7XY      0.218000
     49 HAU        -7.8180   -0.7830    1.6760 ha        1 7XY      0.191000
     50 HNBA       -7.6600    2.9270   -0.8400 hn        1 7XY      0.243500
     51 HAW1       -9.3300    1.0820   -0.5700 hx        1 7XY      0.143000
     52 HAW2       -7.9010   -0.0100   -0.9440 hx        1 7XY      0.143000
     53 HAX1       -9.3510    2.0250   -2.7560 hc        1 7XY      0.125000
     54 HAX2       -9.0250    0.2650   -3.0000 hc        1 7XY      0.125000
     55 HBK        -7.0910    2.6670   -3.1700 hc        1 7XY      0.080000
     56 HAR        -4.8060    2.4780   -3.1390 ha        1 7XY      0.132500
     57 HAK        -2.7640    1.1570   -2.6350 ha        1 7XY      0.146750
     58 HAH        -2.9160   -1.3150   -2.2930 ha        1 7XY      0.154000
     59 HAL        -5.1360   -2.4520   -2.4500 ha        1 7XY      0.146750
     60 HAS        -7.1820   -1.1390   -2.9580 ha        1 7XY      0.132500
     61 HAP        -7.3570    3.6550   -5.1660 ha        1 7XY      0.132500
     62 HAI        -7.8790    3.5860   -7.5920 ha        1 7XY      0.146750
     63 HAG        -8.4650    1.4200   -8.6900 ha        1 7XY      0.154000
     64 HAJ        -8.5190   -0.6820   -7.3410 ha        1 7XY      0.146750
     65 HAQ        -7.9890   -0.6230   -4.9140 ha        1 7XY      0.132500
     66 HBL1       -1.5930   -2.1030    2.1690 hn        1 7XY      0.222000
     67 HBA2       -6.4770    1.7980   -0.8510 hn        1 7XY      0.243500
@<TRIPOS>BOND
     1    1    2 1   
     2    1    7 1   
     3    1   40 1   
     4    2    3 1   
     5    2    4 1   
     6    4    5 1   
     7    4   41 1   
     8    5    6 1   
     9    5   42 1   
    10    6    7 1   
    11    6   43 1   
    12    7    8 1   
    13    8    9 1   
    14    8   44 1   
    15    8   45 1   
    16    9   10 1   
    17    9   15 1   
    18    9   66 1   
    19   10   11 1   
    20   12   13 1   
    21   12   14 1   
    22   15   16 1   
    23   15   46 1   
    24   15   47 1   
    25   16   17 1   
    26   16   18 1   
    27   17   20 1   
    28   18   19 1   
    29   18   48 1   
    30   19   20 1   
    31   19   49 1   
    32   20   21 1   
    33   21   22 1   
    34   21   23 1   
    35   21   24 1   
    36   24   25 1   
    37   24   50 1   
    38   24   67 1   
    39   25   26 1   
    40   25   51 1   
    41   25   52 1   
    42   26   27 1   
    43   26   53 1   
    44   26   54 1   
    45   27   28 1   
    46   27   34 1   
    47   27   55 1   
    48   28   29 1   
    49   28   33 1   
    50   29   30 1   
    51   29   56 1   
    52   30   31 1   
    53   30   57 1   
    54   31   32 1   
    55   31   58 1   
    56   32   33 1   
    57   32   59 1   
    58   33   60 1   
    59   34   35 1   
    60   34   39 1   
    61   35   36 1   
    62   35   61 1   
    63   36   37 1   
    64   36   62 1   
    65   37   38 1   
    66   37   63 1   
    67   38   39 1   
    68   38   64 1   
    69   39   65 1   
@<TRIPOS>SUBSTRUCTURE
     1 7XY         1 TEMP              0 ****  ****    0 ROOT
