@<TRIPOS>MOLECULE
7XY
   65    68     1     0     0
SMALL
bcc


@<TRIPOS>ATOM
      1 CAV         4.2410   -2.1220    0.9450 ca        1 7XY     -0.125000
      2 CBE         4.3890   -2.5290   -0.3840 ca        1 7XY      0.003400
      3 CLF         3.4480   -3.8250   -0.9770 cl        1 7XY     -0.132400
      4 CAN         5.2950   -1.8900   -1.2340 ca        1 7XY     -0.134000
      5 CAM         6.0580   -0.8320   -0.7410 ca        1 7XY     -0.132000
      6 CAO         5.9240   -0.4170    0.5830 ca        1 7XY     -0.102000
      7 CBF         5.0160   -1.0640    1.4290 ca        1 7XY     -0.101300
      8 CAY         4.8950   -0.6350    2.8690 c3        1 7XY      0.141300
      9 NBL         4.2580    0.6390    3.0740 n         1 7XY     -0.494800
     10 CBD         5.0080    1.8090    3.2820 c         1 7XY      0.544100
     11 OAB         4.4120    2.9000    3.3330 o         1 7XY     -0.635100
     12 CBC         6.5490    1.6710    3.4910 c         1 7XY      0.896600
     13 OAE         7.2650    1.7710    2.4660 o         1 7XY     -0.795800
     14 OAA         6.9300    1.4600    4.6680 o         1 7XY     -0.795800
     15 CAZ         2.8400    0.7020    2.8310 c3        1 7XY      0.144300
     16 CBG         1.9940    0.3170    4.0010 cc        1 7XY     -0.119400
     17 SBB         2.3010    0.7100    5.5600 ss        1 7XY      0.346200
     18 CAT         0.8080   -0.4200    3.8890 cd        1 7XY     -0.208000
     19 CAU         0.2180   -0.6210    5.1490 cd        1 7XY     -0.030000
     20 CBJ         0.9640   -0.0290    6.1880 cc        1 7XY     -0.558600
     21 SBM         0.4340   -0.1370    7.7470 sy        1 7XY      1.564200
     22 OAC         0.0390    1.1360    8.2130 o         1 7XY     -0.671800
     23 OAD        -0.5580   -1.1460    7.8470 o         1 7XY     -0.671800
     24 NBA         1.7450   -0.6320    8.5620 n3        1 7XY     -0.915100
     25 CAW         2.8740    0.2110    8.8170 c3        1 7XY      0.214800
     26 CAX         3.7540   -0.1930    9.9970 c3        1 7XY     -0.076400
     27 CBK         4.4120   -1.5630    9.8670 c3        1 7XY      0.027900
     28 CBI         5.1710   -1.7650    8.5910 ca        1 7XY     -0.078800
     29 CAR         5.2090   -3.0500    8.0300 ca        1 7XY     -0.129750
     30 CAK         5.8920   -3.2790    6.8370 ca        1 7XY     -0.128250
     31 CAH         6.5350   -2.2280    6.1850 ca        1 7XY     -0.135500
     32 CAL         6.5040   -0.9450    6.7330 ca        1 7XY     -0.128250
     33 CAS         5.8360   -0.7210    7.9380 ca        1 7XY     -0.129750
     34 CBH         5.2920   -1.7920   11.0640 ca        1 7XY     -0.078800
     35 CAP         4.8620   -2.6370   12.0940 ca        1 7XY     -0.129750
     36 CAI         5.6640   -2.8450   13.2150 ca        1 7XY     -0.128250
     37 CAG         6.9020   -2.2120   13.3180 ca        1 7XY     -0.135500
     38 CAJ         7.3370   -1.3700   12.2940 ca        1 7XY     -0.128250
     39 CAQ         6.5370   -1.1610   11.1730 ca        1 7XY     -0.129750
     40 HAV         3.5230   -2.6300    1.6050 ha        1 7XY      0.140000
     41 HAN         5.4040   -2.2150   -2.2780 ha        1 7XY      0.132000
     42 HAM         6.7730   -0.3200   -1.4020 ha        1 7XY      0.134000
     43 HAO         6.5310    0.4250    0.9800 ha        1 7XY      0.208000
     44 HAY1        4.3080   -1.4190    3.4320 h1        1 7XY      0.065700
     45 HAY2        5.9350   -0.5950    3.3140 h1        1 7XY      0.065700
     46 HAZ1        2.5750    0.0220    1.9680 h1        1 7XY      0.071200
     47 HAZ2        2.5670    1.7620    2.5400 h1        1 7XY      0.071200
     48 HAT         0.3980   -0.7950    2.9500 ha        1 7XY      0.154000
     49 HAU        -0.7080   -1.1800    5.3170 ha        1 7XY      0.166000
     50 HNBA        1.8770   -1.5850    8.8020 hn        1 7XY      0.444800
     51 HAW1        3.5250    0.2560    7.8880 h1        1 7XY      0.052700
     52 HAW2        2.4910    1.2560    9.0220 h1        1 7XY      0.052700
     53 HAX1        4.5490    0.5930   10.1030 hc        1 7XY      0.053700
     54 HAX2        3.1450   -0.1850   10.9400 hc        1 7XY      0.053700
     55 HBK         3.5890   -2.3390    9.8940 hc        1 7XY      0.049700
     56 HAR         4.6970   -3.8820    8.5340 ha        1 7XY      0.131750
     57 HAK         5.9160   -4.2910    6.4080 ha        1 7XY      0.143750
     58 HAH         7.0590   -2.4010    5.2340 ha        1 7XY      0.129500
     59 HAL         6.9810   -0.1000    6.1980 ha        1 7XY      0.143750
     60 HAS         5.8270    0.2950    8.3620 ha        1 7XY      0.131750
     61 HAP         3.8870   -3.1410   12.0200 ha        1 7XY      0.131750
     62 HAI         5.3180   -3.5110   14.0190 ha        1 7XY      0.143750
     63 HAG         7.5340   -2.3770   14.2020 ha        1 7XY      0.129500
     64 HAJ         8.3140   -0.8710   12.3690 ha        1 7XY      0.143750
     65 HAQ         6.8830   -0.5050   10.3580 ha        1 7XY      0.131750
@<TRIPOS>BOND
     1    1    2 ar  
     2    1    7 ar  
     3    1   40 1   
     4    2    3 1   
     5    2    4 ar  
     6    4    5 ar  
     7    4   41 1   
     8    5    6 ar  
     9    5   42 1   
    10    6    7 ar  
    11    6   43 1   
    12    7    8 1   
    13    8    9 1   
    14    8   44 1   
    15    8   45 1   
    16    9   10 1   
    17    9   15 1   
    18   10   11 2   
    19   10   12 1   
    20   12   13 1   
    21   12   14 1   
    22   15   16 1   
    23   15   46 1   
    24   15   47 1   
    25   16   17 1   
    26   16   18 2   
    27   17   20 1   
    28   18   19 1   
    29   18   48 1   
    30   19   20 2   
    31   19   49 1   
    32   20   21 1   
    33   21   22 2   
    34   21   23 2   
    35   21   24 1   
    36   24   25 1   
    37   24   50 1   
    38   25   26 1   
    39   25   51 1   
    40   25   52 1   
    41   26   27 1   
    42   26   53 1   
    43   26   54 1   
    44   27   28 1   
    45   27   34 1   
    46   27   55 1   
    47   28   29 ar  
    48   28   33 ar  
    49   29   30 ar  
    50   29   56 1   
    51   30   31 ar  
    52   30   57 1   
    53   31   32 ar  
    54   31   58 1   
    55   32   33 ar  
    56   32   59 1   
    57   33   60 1   
    58   34   35 ar  
    59   34   39 ar  
    60   35   36 ar  
    61   35   61 1   
    62   36   37 ar  
    63   36   62 1   
    64   37   38 ar  
    65   37   63 1   
    66   38   39 ar  
    67   38   64 1   
    68   39   65 1   
@<TRIPOS>SUBSTRUCTURE
     1 7XY         1 TEMP              0 ****  ****    0 ROOT
