@<TRIPOS>MOLECULE
7XY
   67    69     1     0     0
SMALL
bcc


@<TRIPOS>ATOM
      1 CAV         0.6140   -0.4930    0.6740 ca        1 7XY     -0.101000
      2 CBE         1.8710   -0.0070    1.0520 ca        1 7XY     -0.059000
      3 ClF         3.2600   -0.5810    0.2710 cl        1 7XY      0.024000
      4 CAN         1.9860    0.9500    2.0670 ca        1 7XY     -0.098000
      5 CAM         0.8360    1.4190    2.7020 ca        1 7XY     -0.113000
      6 CAO        -0.4190    0.9400    2.3320 ca        1 7XY     -0.130000
      7 CBF        -0.5310   -0.0180    1.3190 ca        1 7XY     -0.136000
      8 CAY        -1.8710   -0.5310    0.8900 c3        1 7XY     -0.074000
      9 NBL        -2.3920   -1.6370    1.7280 nx        1 7XY     -0.116000
     10 CBD        -2.9260   -2.8360    0.7530 c1        1 7XY      0.039000
     11 OAB        -4.0610   -3.2020    0.9390 o         1 7XY     -0.329000
     12 CBC        -1.2380   -3.7570   -0.9850 c1        1 7XY      0.443000
     13 OAE        -1.1060   -2.6730   -1.4700 o         1 7XY     -0.225500
     14 OAA        -1.3100   -4.8620   -0.5560 o         1 7XY     -0.225500
     15 CAZ        -3.2670   -1.1630    2.8280 c3        1 7XY     -0.098000
     16 CBG        -4.5460   -0.5420    2.3880 c2        1 7XY     -0.347000
     17 SBB        -4.7780    1.0430    2.0960 ss        1 7XY      0.914000
     18 CAT        -5.7360   -1.2790    2.2150 c2        1 7XY     -0.129000
     19 CAU        -6.7890   -0.4470    1.8430 c2        1 7XY     -0.006000
     20 CBJ        -6.3960    0.9250    1.7270 c2        1 7XY     -1.403000
     21 SBM        -7.4770    2.0220    1.4040 s6        1 7XY      2.878000
     22 OAC        -8.7830    1.6540    1.6540 o         1 7XY     -0.860500
     23 OAD        -7.0590    3.3240    1.6120 o         1 7XY     -0.860500
     24 NBA        -7.4230    1.9870   -0.5040 ny        1 7XY     -0.468000
     25 CAW        -8.3440    1.0060   -1.1200 c3        1 7XY     -0.129000
     26 CAX        -8.5840    1.2080   -2.6110 c3        1 7XY     -0.183000
     27 CBK        -7.3390    1.5770   -3.4130 c3        1 7XY     -0.024000
     28 CBI        -6.1370    0.7540   -3.0560 ca        1 7XY     -0.103000
     29 CAR        -4.8910    1.3890   -2.9540 ca        1 7XY     -0.131000
     30 CAK        -3.7430    0.6490   -2.6770 ca        1 7XY     -0.121250
     31 CAH        -3.8250   -0.7310   -2.4900 ca        1 7XY     -0.117500
     32 CAL        -5.0630   -1.3680   -2.5830 ca        1 7XY     -0.121250
     33 CAS        -6.2120   -0.6300   -2.8640 ca        1 7XY     -0.131000
     34 CBH        -7.6460    1.5090   -4.8810 ca        1 7XY     -0.103000
     35 CAP        -7.6130    2.6830   -5.6430 ca        1 7XY     -0.131000
     36 CAI        -7.9020    2.6440   -7.0060 ca        1 7XY     -0.121250
     37 CAG        -8.2260    1.4330   -7.6200 ca        1 7XY     -0.117500
     38 CAJ        -8.2580    0.2610   -6.8650 ca        1 7XY     -0.121250
     39 CAQ        -7.9690    0.2970   -5.5020 ca        1 7XY     -0.131000
     40 HAV         0.5230   -1.2400   -0.1340 ha        1 7XY      0.166000
     41 HAN         2.9760    1.3310    2.3620 ha        1 7XY      0.165000
     42 HAM         0.9240    2.1750    3.4980 ha        1 7XY      0.151000
     43 HAO        -1.3180    1.3250    2.8330 ha        1 7XY      0.118000
     44 HAY1       -2.6170    0.3160    0.8900 hx        1 7XY      0.121500
     45 HAY2       -1.7990   -0.9270   -0.1700 hx        1 7XY      0.121500
     46 HAZ1       -3.5180   -2.0710    3.4550 hx        1 7XY      0.132500
     47 HAZ2       -2.7050   -0.4300    3.4790 hx        1 7XY      0.132500
     48 HAT        -5.8010   -2.3710    2.3260 ha        1 7XY      0.218000
     49 HAU        -7.8180   -0.7910    1.6740 ha        1 7XY      0.191000
     50 HNBA       -7.6670    2.9180   -0.8470 hn        1 7XY      0.244000
     51 HAW1       -9.3350    1.0700   -0.5780 hx        1 7XY      0.143000
     52 HAW2       -7.9020   -0.0190   -0.9480 hx        1 7XY      0.143000
     53 HAX1       -9.3530    2.0130   -2.7650 hc        1 7XY      0.125000
     54 HAX2       -9.0240    0.2520   -3.0070 hc        1 7XY      0.125000
     55 HBK        -7.0930    2.6570   -3.1750 hc        1 7XY      0.080000
     56 HAR        -4.8080    2.4710   -3.1390 ha        1 7XY      0.132500
     57 HAK        -2.7650    1.1540   -2.6300 ha        1 7XY      0.146750
     58 HAH        -2.9130   -1.3190   -2.2870 ha        1 7XY      0.154000
     59 HAL        -5.1320   -2.4590   -2.4470 ha        1 7XY      0.146750
     60 HAS        -7.1790   -1.1490   -2.9600 ha        1 7XY      0.132500
     61 HAP        -7.3560    3.6430   -5.1720 ha        1 7XY      0.132500
     62 HAI        -7.8730    3.5710   -7.5990 ha        1 7XY      0.146750
     63 HAG        -8.4530    1.4030   -8.6960 ha        1 7XY      0.154000
     64 HAJ        -8.5080   -0.6970   -7.3460 ha        1 7XY      0.146750
     65 HAQ        -7.9840   -0.6350   -4.9180 ha        1 7XY      0.132500
     66 HBL1       -1.5890   -2.0880    2.1790 hn        1 7XY      0.222000
     67 HBA2       -6.4820    1.7910   -0.8540 hn        1 7XY      0.244000
@<TRIPOS>BOND
     1    1    2 1   
     2    1    7 1   
     3    1   40 1   
     4    2    3 1   
     5    2    4 1   
     6    4    5 1   
     7    4   41 1   
     8    5    6 1   
     9    5   42 1   
    10    6    7 1   
    11    6   43 1   
    12    7    8 1   
    13    8    9 1   
    14    8   44 1   
    15    8   45 1   
    16    9   10 1   
    17    9   15 1   
    18    9   66 1   
    19   10   11 1   
    20   12   13 1   
    21   12   14 1   
    22   15   16 1   
    23   15   46 1   
    24   15   47 1   
    25   16   17 1   
    26   16   18 1   
    27   17   20 1   
    28   18   19 1   
    29   18   48 1   
    30   19   20 1   
    31   19   49 1   
    32   20   21 1   
    33   21   22 1   
    34   21   23 1   
    35   21   24 1   
    36   24   25 1   
    37   24   50 1   
    38   24   67 1   
    39   25   26 1   
    40   25   51 1   
    41   25   52 1   
    42   26   27 1   
    43   26   53 1   
    44   26   54 1   
    45   27   28 1   
    46   27   34 1   
    47   27   55 1   
    48   28   29 1   
    49   28   33 1   
    50   29   30 1   
    51   29   56 1   
    52   30   31 1   
    53   30   57 1   
    54   31   32 1   
    55   31   58 1   
    56   32   33 1   
    57   32   59 1   
    58   33   60 1   
    59   34   35 1   
    60   34   39 1   
    61   35   36 1   
    62   35   61 1   
    63   36   37 1   
    64   36   62 1   
    65   37   38 1   
    66   37   63 1   
    67   38   39 1   
    68   38   64 1   
    69   39   65 1   
@<TRIPOS>SUBSTRUCTURE
     1 7XY         1 TEMP              0 ****  ****    0 ROOT
