@<TRIPOS>MOLECULE
7XY
   67    69     1     0     0
SMALL
bcc


@<TRIPOS>ATOM
      1 CAV         0.6140   -0.4440    0.6670 ca        1 7XY     -0.101000
      2 CBE         1.8630    0.0560    1.0510 ca        1 7XY     -0.059000
      3 CLF         3.2610   -0.4890    0.2660 cl        1 7XY      0.024000
      4 CAN         1.9630    1.0020    2.0780 ca        1 7XY     -0.098000
      5 CAM         0.8060    1.4480    2.7170 ca        1 7XY     -0.113000
      6 CAO        -0.4410    0.9550    2.3400 ca        1 7XY     -0.130000
      7 CBF        -0.5390    0.0070    1.3160 ca        1 7XY     -0.136000
      8 CAY        -1.8710   -0.5200    0.8790 c3        1 7XY     -0.074000
      9 NBL        -2.3770   -1.6420    1.7060 n4        1 7XY     -0.116000
     10 CBD        -2.8910   -2.8390    0.7170 c1        1 7XY      0.039000
     11 OAB        -4.0200   -3.2240    0.8970 o         1 7XY     -0.329000
     12 CBC        -1.1860   -3.7170   -1.0270 c1        1 7XY      0.443000
     13 OAE        -1.0690   -2.6270   -1.5010 o         1 7XY     -0.225500
     14 OAA        -1.2420   -4.8270   -0.6090 o         1 7XY     -0.225500
     15 CAZ        -3.2620   -1.1910    2.8070 c3        1 7XY     -0.098000
     16 CBG        -4.5490   -0.5850    2.3700 c2        1 7XY     -0.347000
     17 SBB        -4.8030    1.0010    2.0970 ss        1 7XY      0.914000
     18 CAT        -5.7260   -1.3370    2.1840 c2        1 7XY     -0.129000
     19 CAU        -6.7900   -0.5150    1.8180 c2        1 7XY     -0.006000
     20 CBJ        -6.4170    0.8640    1.7200 c2        1 7XY     -1.403000
     21 SBM        -7.5130    1.9480    1.4070 s6        1 7XY      2.878000
     22 OAC        -8.8140    1.5580    1.6470 o         1 7XY     -0.860500
     23 OAD        -7.1150    3.2530    1.6340 o         1 7XY     -0.860500
     24 NBA        -7.4510    1.9390   -0.5010 n4        1 7XY     -0.468000
     25 CAW        -8.3580    0.9550   -1.1330 c3        1 7XY     -0.129000
     26 CAX        -8.5940    1.1730   -2.6230 c3        1 7XY     -0.183000
     27 CBK        -7.3500    1.5670   -3.4140 c3        1 7XY     -0.024000
     28 CBI        -6.1400    0.7540   -3.0630 ca        1 7XY     -0.103000
     29 CAR        -4.9020    1.4020   -2.9470 ca        1 7XY     -0.131000
     30 CAK        -3.7460    0.6730   -2.6750 ca        1 7XY     -0.121250
     31 CAH        -3.8120   -0.7110   -2.5060 ca        1 7XY     -0.117500
     32 CAL        -5.0420   -1.3610   -2.6130 ca        1 7XY     -0.121250
     33 CAS        -6.1990   -0.6340   -2.8900 ca        1 7XY     -0.131000
     34 CBH        -7.6500    1.5140   -4.8840 ca        1 7XY     -0.103000
     35 CAP        -7.6270    2.6980   -5.6320 ca        1 7XY     -0.131000
     36 CAI        -7.9100    2.6730   -6.9970 ca        1 7XY     -0.121250
     37 CAG        -8.2170    1.4680   -7.6270 ca        1 7XY     -0.117500
     38 CAJ        -8.2390    0.2850   -6.8870 ca        1 7XY     -0.121250
     39 CAQ        -7.9560    0.3070   -5.5220 ca        1 7XY     -0.131000
     40 HAV         0.5340   -1.1830   -0.1500 ha        1 7XY      0.166000
     41 HAN         2.9480    1.3950    2.3790 ha        1 7XY      0.165000
     42 HAM         0.8820    2.1960    3.5220 ha        1 7XY      0.151000
     43 HAO        -1.3460    1.3210    2.8450 ha        1 7XY      0.118000
     44 HAY1       -2.6290    0.3160    0.8870 hx        1 7XY      0.121500
     45 HAY2       -1.7920   -0.9040   -0.1840 hx        1 7XY      0.121500
     46 HAZ1       -3.5020   -2.1090    3.4240 hx        1 7XY      0.132500
     47 HAZ2       -2.7120   -0.4580    3.4680 hx        1 7XY      0.132500
     48 HAT        -5.7760   -2.4310    2.2810 ha        1 7XY      0.218000
     49 HAU        -7.8140   -0.8720    1.6410 ha        1 7XY      0.191000
     50 HNBA       -7.7050    2.8710   -0.8330 hn        1 7XY      0.244000
     51 HAW1       -9.3510    1.0000   -0.5950 hx        1 7XY      0.143000
     52 HAW2       -7.9040   -0.0670   -0.9730 hx        1 7XY      0.143000
     53 HAX1       -9.0200    0.2170   -3.0330 hc        1 7XY      0.125000
     54 HAX2       -9.3710    1.9700   -2.7690 hc        1 7XY      0.125000
     55 HBK        -7.1170    2.6470   -3.1610 hc        1 7XY      0.080000
     56 HAR        -4.8310    2.4880   -3.1180 ha        1 7XY      0.132500
     57 HAK        -2.7740    1.1880   -2.6170 ha        1 7XY      0.146750
     58 HAH        -2.8950   -1.2900   -2.3070 ha        1 7XY      0.154000
     59 HAL        -5.0980   -2.4540   -2.4920 ha        1 7XY      0.146750
     60 HAS        -7.1590   -1.1630   -2.9970 ha        1 7XY      0.132500
     61 HAP        -7.3820    3.6550   -5.1470 ha        1 7XY      0.132500
     62 HAI        -7.8880    3.6080   -7.5770 ha        1 7XY      0.146750
     63 HAG        -8.4390    1.4490   -8.7040 ha        1 7XY      0.154000
     64 HAJ        -8.4760   -0.6690   -7.3810 ha        1 7XY      0.146750
     65 HAQ        -7.9630   -0.6330   -4.9510 ha        1 7XY      0.132500
     66 HBL1       -1.5690   -2.0850    2.1540 hn        1 7XY      0.222000
     67 HBA2       -6.5060    1.7590   -0.8490 hn        1 7XY      0.244000
@<TRIPOS>BOND
     1    1    2 1   
     2    1    7 1   
     3    1   40 1   
     4    2    3 1   
     5    2    4 1   
     6    4    5 1   
     7    4   41 1   
     8    5    6 1   
     9    5   42 1   
    10    6    7 1   
    11    6   43 1   
    12    7    8 1   
    13    8    9 1   
    14    8   44 1   
    15    8   45 1   
    16    9   10 1   
    17    9   15 1   
    18    9   66 1   
    19   10   11 1   
    20   12   13 1   
    21   12   14 1   
    22   15   16 1   
    23   15   46 1   
    24   15   47 1   
    25   16   17 1   
    26   16   18 1   
    27   17   20 1   
    28   18   19 1   
    29   18   48 1   
    30   19   20 1   
    31   19   49 1   
    32   20   21 1   
    33   21   22 1   
    34   21   23 1   
    35   21   24 1   
    36   24   25 1   
    37   24   50 1   
    38   24   67 1   
    39   25   26 1   
    40   25   51 1   
    41   25   52 1   
    42   26   27 1   
    43   26   53 1   
    44   26   54 1   
    45   27   28 1   
    46   27   34 1   
    47   27   55 1   
    48   28   29 1   
    49   28   33 1   
    50   29   30 1   
    51   29   56 1   
    52   30   31 1   
    53   30   57 1   
    54   31   32 1   
    55   31   58 1   
    56   32   33 1   
    57   32   59 1   
    58   33   60 1   
    59   34   35 1   
    60   34   39 1   
    61   35   36 1   
    62   35   61 1   
    63   36   37 1   
    64   36   62 1   
    65   37   38 1   
    66   37   63 1   
    67   38   39 1   
    68   38   64 1   
    69   39   65 1   
@<TRIPOS>SUBSTRUCTURE
     1 7XY         1 TEMP              0 ****  ****    0 ROOT
