@<TRIPOS>MOLECULE
7YG
   58    59     1     0     0
SMALL
bcc


@<TRIPOS>ATOM
      1 C1        -92.2360 -584.6890  655.2410 c3        1 7YG      0.081100
      2 N2        -92.9430 -585.4660  656.2940 n4        1 7YG     -0.671400
      3 C3        -92.2240 -586.7360  656.5760 c3        1 7YG      0.081100
      4 C4        -93.1140 -584.6630  657.5470 c3        1 7YG      0.031800
      5 C5        -94.2440 -583.5960  657.4370 c3        1 7YG      0.178800
      6 N6        -94.4910 -582.8590  658.6240 n3        1 7YG     -0.919800
      7 S7         52.7690  287.7490 -323.8970 s4        1 7YG      1.649300
      8 O8         52.1370  287.9380 -322.7270 o         1 7YG     -0.342400
      9 O9         54.0570  287.4190 -324.0740 o         1 7YG     -0.342400
     10 C10        51.8960  287.9290 -325.2070 ca        1 7YG     -0.564500
     11 C11        50.5280  288.2890 -325.1380 ca        1 7YG      0.050500
     12 C12        49.7610  288.4570 -326.2880 ca        1 7YG     -0.120500
     13 C13        50.3450  288.2790 -327.5500 cp        1 7YG     -0.057500
     14 C14        51.6960  287.9120 -327.6470 ca        1 7YG     -0.120500
     15 C15        52.4550  287.7390 -326.4940 ca        1 7YG      0.050500
     16 C16        49.5690  288.5090 -328.7870 cp        1 7YG      0.401500
     17 C17        50.1540  289.3360 -329.8190 ca        1 7YG      0.409900
     18 N18        49.5160  289.5900 -330.9610 nb        1 7YG     -0.581000
     19 C19        48.2750  289.0350 -331.1380 ca        1 7YG      0.442900
     20 C20        47.6850  288.2140 -330.1250 ca        1 7YG      0.270500
     21 N21        48.3480  287.9680 -328.9590 nb        1 7YG     -0.604000
     22 C22        46.3410  287.5920 -330.3330 c         1 7YG      0.462600
     23 O23        45.7050  287.7180 -331.3760 o         1 7YG     -0.436100
     24 N24        45.7190  286.7660 -329.2530 n4        1 7YG     -0.489200
     25 C25        44.9280  287.5820 -328.3290 ca        1 7YG     -0.232700
     26 C26        43.5680  287.8630 -328.5990 ca        1 7YG     -0.048000
     27 C27        42.8500  288.5870 -327.6530 ca        1 7YG     -0.198300
     28 C28        43.5020  289.0130 -326.4730 ca        1 7YG      0.491200
     29 N29        44.7980  288.7460 -326.2140 nb        1 7YG     -0.626000
     30 C30        45.4960  288.0380 -327.1120 ca        1 7YG      0.444200
     31 N31        47.6120  289.3420 -332.4170 n4        1 7YG     -0.824300
     32 H11C      -92.7990 -583.7400  655.0350 hx        1 7YG      0.106867
     33 H12C      -91.1980 -584.4420  655.5890 hx        1 7YG      0.106867
     34 H13C      -92.1790 -585.3040  654.3030 hx        1 7YG      0.106867
     35 H31C      -92.8220 -587.3530  657.3000 hx        1 7YG      0.106867
     36 H32C      -91.2190 -586.5070  657.0200 hx        1 7YG      0.106867
     37 H33C      -92.0900 -587.3080  655.6180 hx        1 7YG      0.106867
     38 H41C      -92.1310 -584.1640  657.7780 hx        1 7YG      0.100200
     39 H42C      -93.3570 -585.3790  658.3830 hx        1 7YG      0.100200
     40 H51C      -93.9690 -582.8670  656.6210 h1        1 7YG      0.070200
     41 H52C      -95.1990 -584.1190  657.1410 h1        1 7YG      0.070200
     42 H6        -94.8510 -583.4010  659.3790 hn        1 7YG      0.390800
     43 H11        50.0510  288.4440 -324.1460 ha        1 7YG      0.205000
     44 H15        53.5240  287.4490 -326.5930 ha        1 7YG      0.205000
     45 H12        48.7000  288.7450 -326.1890 ha        1 7YG      0.185500
     46 H14        52.1700  287.7480 -328.6320 ha        1 7YG      0.185500
     47 H17        51.1590  289.8030 -329.7010 h4        1 7YG      0.114100
     48 H311       47.3590  288.4620 -332.8970 hn        1 7YG      0.504133
     49 H312       46.7490  289.8800 -332.2380 hn        1 7YG      0.504133
     50 H24        45.0830  286.0770 -329.7000 hn        1 7YG      0.494800
     51 H26        43.0710  287.5140 -329.5220 ha        1 7YG      0.182000
     52 H30        46.5440  287.8170 -326.8340 h4        1 7YG      0.029100
     53 H27        41.7810  288.8200 -327.8130 ha        1 7YG      0.211000
     54 H28        42.9590  289.5900 -325.6900 h4        1 7YG      0.092100
     55 H21       -93.8830 -585.6980  655.9410 hn        1 7YG      0.451800
     56 H62       -93.7380 -582.2710  658.9070 hn        1 7YG      0.390800
     57 H242       46.4400  286.2560 -328.7210 hn        1 7YG      0.494800
     58 H313       48.2330  289.8980 -333.0370 hn        1 7YG      0.504133
@<TRIPOS>BOND
     1    1    2 1   
     2    1   32 1   
     3    1   33 1   
     4    1   34 1   
     5    2    3 1   
     6    2    4 1   
     7    2   55 1   
     8    3   35 1   
     9    3   36 1   
    10    3   37 1   
    11    4    5 1   
    12    4   38 1   
    13    4   39 1   
    14    5    6 1   
    15    5   40 1   
    16    5   41 1   
    17    6   42 1   
    18    6   56 1   
    19    7    8 1   
    20    7    9 1   
    21    7   10 1   
    22   10   11 ar  
    23   10   15 ar  
    24   11   12 ar  
    25   11   43 1   
    26   12   13 ar  
    27   12   45 1   
    28   13   14 ar  
    29   13   16 1   
    30   14   15 ar  
    31   14   46 1   
    32   15   44 1   
    33   16   17 ar  
    34   16   21 ar  
    35   17   18 ar  
    36   17   47 1   
    37   18   19 ar  
    38   19   20 ar  
    39   19   31 1   
    40   20   21 ar  
    41   20   22 1   
    42   22   23 2   
    43   22   24 1   
    44   24   25 1   
    45   24   50 1   
    46   24   57 1   
    47   25   26 ar  
    48   25   30 ar  
    49   26   27 ar  
    50   26   51 1   
    51   27   28 ar  
    52   27   53 1   
    53   28   29 ar  
    54   28   54 1   
    55   29   30 ar  
    56   30   52 1   
    57   31   48 1   
    58   31   49 1   
    59   31   58 1   
@<TRIPOS>SUBSTRUCTURE
     1 7YG         1 TEMP              0 ****  ****    0 ROOT
