@<TRIPOS>MOLECULE
7YG
   54    49     1     0     0
SMALL
bcc


@<TRIPOS>ATOM
      1 C1         -4.8780   -5.2400    4.2770 c3        1 7YG     -0.116000
      2 N2         -3.6390   -5.4780    3.5980 n3        1 7YG     -0.272000
      3 C3         -3.8290   -6.5170    2.5940 c3        1 7YG     -0.116000
      4 C4         -3.2030   -4.2810    2.9610 c3        1 7YG     -0.080000
      5 C5         -1.8820   -3.8260    3.5830 c3        1 7YG     -0.011000
      6 N6         -1.5470   -2.5210    3.0950 n3        1 7YG     -0.895000
      7 S7         -0.3880   -1.5640    3.9300 s4        1 7YG      2.071800
      8 O8         -0.9450   -1.0060    5.1590 o         1 7YG     -0.541900
      9 O9          0.6610   -2.3620    4.4430 o         1 7YG     -0.541900
     10 C10         0.2410   -0.2710    2.8560 c1        1 7YG     -0.819000
     11 C11         1.5460   -0.3580    2.3480 c2        1 7YG     -0.019000
     12 C12         2.0550    0.6680    1.5490 c1        1 7YG     -0.130000
     13 C13         1.2750    1.7670    1.2580 c1        1 7YG      0.045000
     14 C14        -0.0310    1.8550    1.7670 c1        1 7YG     -0.152000
     15 C15        -0.5390    0.8270    2.5670 c1        1 7YG     -0.017000
     16 C16         1.8450    2.9210    0.3280 c2        1 7YG     -0.116000
     17 C17         2.3400    4.0890    0.8930 c2        1 7YG     -0.017000
     18 N18         2.7860    5.0820    0.1000 n1        1 7YG     -0.187000
     19 C19         2.7520    4.9420   -1.2410 c1        1 7YG      0.164000
     20 C20         2.2580    3.7770   -1.8050 c1        1 7YG     -0.197000
     21 N21         1.8120    2.7830   -1.0140 n1        1 7YG     -0.050000
     22 C22         2.0870    3.6820   -3.3150 c2        1 7YG      0.384000
     23 O23         2.3840    4.6320   -4.0230 o         1 7YG     -0.375000
     24 N24         1.7050    2.4670   -3.8980 n         1 7YG     -0.291000
     25 C25         1.6610    2.3410   -5.3180 c2        1 7YG      0.018000
     26 C26         2.4870    1.4470   -5.9540 c2        1 7YG     -0.145000
     27 C27         2.4450    1.3290   -7.2990 c1        1 7YG     -0.155000
     28 C28         1.5760    2.1020   -8.0310 c1        1 7YG     -0.096000
     29 N29         0.7540    2.9890   -7.4000 n1        1 7YG     -0.118000
     30 C30         0.7950    3.1100   -6.0470 c1        1 7YG     -0.087000
     31 N31         3.1460    5.9950   -2.0630 n3        1 7YG     -0.329000
     32 H11C       -4.7190   -4.6570    5.0670 h1        1 7YG      0.072000
     33 H12C       -5.2660   -6.1130    4.5800 h1        1 7YG      0.072000
     34 H13C       -5.4820   -4.8150    3.6880 h1        1 7YG      0.072000
     35 H31C       -4.5040   -6.2080    1.9190 h1        1 7YG      0.072000
     36 H32C       -2.9660   -6.7000    2.1400 h1        1 7YG      0.072000
     37 H33C       -4.1640   -7.3700    3.0450 h1        1 7YG      0.072000
     38 H41C       -3.8980   -3.5610    3.0830 h1        1 7YG      0.078500
     39 H42C       -3.0750   -4.4480    2.0260 h1        1 7YG      0.078500
     40 H51C       -1.1820   -4.4490    3.3440 h1        1 7YG      0.095500
     41 H52C       -1.9780   -3.7950    4.5880 h1        1 7YG      0.095500
     42 H6         -1.8550   -2.2550    2.3260 hn        1 7YG      0.243000
     43 H11         2.1070   -1.1510    2.5560 ha        1 7YG      0.155000
     44 H15        -1.4450    0.8880    2.9220 ha        1 7YG      0.156000
     45 H12         2.9470    0.6080    1.2020 ha        1 7YG      0.149000
     46 H14        -0.5860    2.6370    1.5600 ha        1 7YG      0.142000
     47 H17         2.3650    4.1920    1.8700 h4        1 7YG      0.179000
     48 H311        3.1720    5.8800   -2.9780 hn        1 7YG      0.248000
     49 H312        3.3990    6.7810   -1.6990 hn        1 7YG      0.248000
     50 H24         1.5470    1.7590   -3.3850 hn        1 7YG      0.248000
     51 H26         3.0990    0.9030   -5.4410 ha        1 7YG      0.138000
     52 H30         0.1960    3.7560   -5.5880 ha        1 7YG      0.197000
     53 H27         3.0090    0.7200   -7.7340 ha        1 7YG      0.145000
     54 H28         1.5470    2.0160   -8.9900 ha        1 7YG      0.162000
@<TRIPOS>BOND
     1    1    2 1   
     2    1   32 1   
     3    1   33 1   
     4    1   34 1   
     5    2    3 1   
     6    2    4 1   
     7    3   35 1   
     8    3   36 1   
     9    3   37 1   
    10    4    5 1   
    11    4   38 1   
    12    4   39 1   
    13    5    6 1   
    14    5   40 1   
    15    5   41 1   
    16    6    7 1   
    17    6   42 1   
    18    7    8 1   
    19    7    9 1   
    20   10   11 1   
    21   10   15 1   
    22   11   12 1   
    23   11   43 1   
    24   12   45 1   
    25   13   14 1   
    26   13   16 1   
    27   14   46 1   
    28   15   44 1   
    29   16   17 1   
    30   16   21 1   
    31   17   18 1   
    32   17   47 1   
    33   19   20 1   
    34   19   31 1   
    35   20   22 1   
    36   22   23 1   
    37   22   24 1   
    38   24   25 1   
    39   24   50 1   
    40   25   26 1   
    41   25   30 1   
    42   26   27 1   
    43   26   51 1   
    44   27   53 1   
    45   28   29 1   
    46   28   54 1   
    47   30   52 1   
    48   31   48 1   
    49   31   49 1   
@<TRIPOS>SUBSTRUCTURE
     1 7YG         1 TEMP              0 ****  ****    0 ROOT
