@<TRIPOS>MOLECULE
7YG
   54    56     1     0     0
SMALL
bcc


@<TRIPOS>ATOM
      1 C1          6.1430    3.9950    0.6000 c3        1 7YG      0.157600
      2 N2          5.8910    3.6900   -0.7900 n3        1 7YG     -0.743600
      3 C3          6.6590    4.5150   -1.6940 c3        1 7YG      0.157600
      4 C4          5.9950    2.2690   -1.0920 c3        1 7YG      0.154800
      5 C5          4.7020    1.5100   -0.7040 c3        1 7YG      0.222800
      6 N6          4.7530    0.1160   -1.0360 n3        1 7YG     -0.922100
      7 S7          4.6040   -1.0910    0.0250 sy        1 7YG      1.515200
      8 O8          5.2900   -2.2180   -0.4800 o         1 7YG     -0.654300
      9 O9          4.9450   -0.6520    1.3220 o         1 7YG     -0.654300
     10 C10         2.9460   -1.4300   -0.0040 ca        1 7YG     -0.374500
     11 C11         2.4300   -2.4000   -0.8710 ca        1 7YG     -0.018500
     12 C12         1.0730   -2.7020   -0.8830 ca        1 7YG     -0.140500
     13 C13         0.1980   -2.0330   -0.0140 cp        1 7YG     -0.065500
     14 C14         0.7030   -1.0610    0.8600 ca        1 7YG     -0.140500
     15 C15         2.0650   -0.7700    0.8600 ca        1 7YG     -0.018500
     16 C16        -1.2310   -2.3690   -0.0210 cp        1 7YG      0.256500
     17 C17        -1.6320   -3.7360   -0.1730 ca        1 7YG      0.381900
     18 N18        -2.9040   -4.1260   -0.1930 nb        1 7YG     -0.712000
     19 C19        -3.8740   -3.1420   -0.0630 ca        1 7YG      0.617900
     20 C20        -3.4610   -1.7600    0.1100 ca        1 7YG      0.156500
     21 N21        -2.1610   -1.4010    0.1240 nb        1 7YG     -0.576000
     22 C22        -4.5010   -0.6920    0.3270 c         1 7YG      0.601600
     23 O23        -5.5140   -0.9330    1.0140 o         1 7YG     -0.617100
     24 N24        -4.2790    0.5230   -0.2930 n         1 7YG     -0.437100
     25 C25        -5.0710    1.6750   -0.1880 ca        1 7YG     -0.052700
     26 C26        -6.2970    1.7410    0.5080 ca        1 7YG     -0.121000
     27 C27        -7.0000    2.9450    0.5220 ca        1 7YG     -0.219300
     28 C28        -6.4740    4.0580   -0.1520 ca        1 7YG      0.365200
     29 N29        -5.3050    4.0230   -0.8230 nb        1 7YG     -0.642000
     30 C30        -4.6250    2.8700   -0.8390 ca        1 7YG      0.352200
     31 N31        -5.1940   -3.4960   -0.1700 nh        1 7YG     -0.931500
     32 H11C        5.9070    5.0770    0.7790 h1        1 7YG      0.033533
     33 H12C        5.4700    3.3690    1.2430 h1        1 7YG      0.033533
     34 H13C        7.2070    3.8050    0.9090 h1        1 7YG      0.033533
     35 H31C        7.7650    4.3160   -1.6480 h1        1 7YG      0.033533
     36 H32C        6.3070    4.3350   -2.7440 h1        1 7YG      0.033533
     37 H33C        6.4810    5.5920   -1.4370 h1        1 7YG      0.033533
     38 H41C        6.1610    2.1420   -2.1990 h1        1 7YG      0.038200
     39 H42C        6.8720    1.7950   -0.5620 h1        1 7YG      0.038200
     40 H51C        4.5340    1.6060    0.4090 h1        1 7YG      0.058700
     41 H52C        3.8280    1.9900   -1.2320 h1        1 7YG      0.058700
     42 H6          4.9120   -0.0590   -1.9990 hn        1 7YG      0.447800
     43 H11         3.1180   -2.9440   -1.5430 ha        1 7YG      0.155000
     44 H15         2.4620   -0.0190    1.5650 ha        1 7YG      0.155000
     45 H12         0.6870   -3.4610   -1.5800 ha        1 7YG      0.148000
     46 H14         0.0290   -0.5300    1.5480 ha        1 7YG      0.148000
     47 H17        -0.8760   -4.5380   -0.2660 h4        1 7YG      0.043100
     48 H311       -5.4340   -4.4600   -0.1830 hn        1 7YG      0.450800
     49 H312       -5.8780   -2.8550    0.1660 hn        1 7YG      0.450800
     50 H24        -3.4150    0.6460   -0.7790 hn        1 7YG      0.337500
     51 H26        -6.7010    0.8640    1.0380 ha        1 7YG      0.176000
     52 H30        -3.6730    2.8920   -1.4000 h4        1 7YG      0.022100
     53 H27        -7.9560    3.0200    1.0580 ha        1 7YG      0.146000
     54 H28        -7.0050    5.0260   -0.1620 h4        1 7YG      0.025100
@<TRIPOS>BOND
     1    1    2 1   
     2    1   32 1   
     3    1   33 1   
     4    1   34 1   
     5    2    3 1   
     6    2    4 1   
     7    3   35 1   
     8    3   36 1   
     9    3   37 1   
    10    4    5 1   
    11    4   38 1   
    12    4   39 1   
    13    5    6 1   
    14    5   40 1   
    15    5   41 1   
    16    6    7 1   
    17    6   42 1   
    18    7    8 2   
    19    7    9 2   
    20    7   10 1   
    21   10   11 ar  
    22   10   15 ar  
    23   11   12 ar  
    24   11   43 1   
    25   12   13 ar  
    26   12   45 1   
    27   13   14 ar  
    28   13   16 1   
    29   14   15 ar  
    30   14   46 1   
    31   15   44 1   
    32   16   17 ar  
    33   16   21 ar  
    34   17   18 ar  
    35   17   47 1   
    36   18   19 ar  
    37   19   20 ar  
    38   19   31 1   
    39   20   21 ar  
    40   20   22 1   
    41   22   23 2   
    42   22   24 1   
    43   24   25 1   
    44   24   50 1   
    45   25   26 ar  
    46   25   30 ar  
    47   26   27 ar  
    48   26   51 1   
    49   27   28 ar  
    50   27   53 1   
    51   28   29 ar  
    52   28   54 1   
    53   29   30 ar  
    54   30   52 1   
    55   31   48 1   
    56   31   49 1   
@<TRIPOS>SUBSTRUCTURE
     1 7YG         1 TEMP              0 ****  ****    0 ROOT
