@<TRIPOS>MOLECULE
7YG
   56    57     1     0     0
SMALL
bcc


@<TRIPOS>ATOM
      1 C1          1.4690   -3.3720    1.2470 c3        1 7YG      0.079600
      2 N2          0.8770   -2.0070    1.2560 nx        1 7YG     -0.673400
      3 C3          0.8440   -1.4660    2.6440 c3        1 7YG      0.079600
      4 C4          1.6200   -1.0760    0.3490 c3        1 7YG      0.062800
      5 C5          1.3080   -1.3070   -1.1470 c3        1 7YG      0.114800
      6 N6          1.9560   -0.3880   -2.0530 n8        1 7YG     -0.967800
      7 S7          1.1150   -1.1660   -4.4410 s4        1 7YG      1.685300
      8 O8          1.8010   -2.3060   -4.1480 o         1 7YG     -0.452900
      9 O9         -0.1200   -0.9610   -3.9050 o         1 7YG     -0.452900
     10 C10         1.6730   -0.1900   -5.4470 ca        1 7YG     -0.712500
     11 C11         2.9290   -0.3990   -6.1100 ca        1 7YG      0.036500
     12 C12         3.3980    0.4440   -7.0770 ca        1 7YG     -0.174500
     13 C13         2.6560    1.5910   -7.4870 cp        1 7YG      0.118500
     14 C14         1.4220    1.8380   -6.8110 ca        1 7YG     -0.174500
     15 C15         0.9570    0.9900   -5.8480 ca        1 7YG      0.036500
     16 C16         3.1170    2.4470   -8.5360 cp        1 7YG      0.140500
     17 C17         4.2410    2.0970   -9.3670 ca        1 7YG      0.458900
     18 N18         4.6670    2.8290  -10.3810 nb        1 7YG     -0.725000
     19 C19         3.9790    4.0130  -10.6660 ca        1 7YG      0.670900
     20 C20         2.8500    4.3980   -9.7830 ca        1 7YG      0.195500
     21 N21         2.4550    3.6330   -8.7830 nb        1 7YG     -0.552000
     22 C22         2.1010    5.6840  -10.0820 c         1 7YG      0.582600
     23 O23         1.8890    5.9920  -11.2720 o         1 7YG     -0.596100
     24 N24         1.7240    6.4420   -9.0030 ns        1 7YG     -0.423100
     25 C25         1.0050    7.6530   -9.0420 ca        1 7YG     -0.086700
     26 C26         0.4550    8.2140  -10.2130 ca        1 7YG     -0.105000
     27 C27        -0.2370    9.4210  -10.1170 ca        1 7YG     -0.214300
     28 C28        -0.3710   10.0400   -8.8620 ca        1 7YG      0.391200
     29 N29         0.1430    9.5200   -7.7300 nb        1 7YG     -0.635000
     30 C30         0.8120    8.3630   -7.8170 ca        1 7YG      0.363200
     31 N31         4.3700    4.7650  -11.7060 nv        1 7YG     -0.851500
     32 H11C        2.5180   -3.3330    1.6470 hx        1 7YG      0.113200
     33 H12C        1.4790   -3.7720    0.1980 hx        1 7YG      0.113200
     34 H13C        0.8490   -4.0470    1.8990 hx        1 7YG      0.113200
     35 H31C        0.3010   -2.1920    3.3090 hx        1 7YG      0.113200
     36 H32C        0.3070   -0.4790    2.6510 hx        1 7YG      0.113200
     37 H33C        1.8930   -1.3290    3.0200 hx        1 7YG      0.113200
     38 H41C        1.3350   -0.0210    0.6330 hx        1 7YG      0.110200
     39 H42C        2.7230   -1.2110    0.5430 hx        1 7YG      0.110200
     40 H51C        1.6270   -2.3510   -1.4410 h1        1 7YG      0.096700
     41 H52C        0.1930   -1.2180   -1.3170 h1        1 7YG      0.096700
     42 H6          1.6850    0.5620   -1.8670 hn        1 7YG      0.393300
     43 H11         3.5250   -1.2880   -5.8220 ha        1 7YG      0.165000
     44 H15        -0.0150    1.1950   -5.3590 ha        1 7YG      0.165000
     45 H12         4.3750    0.2260   -7.5420 ha        1 7YG      0.182000
     46 H14         0.8200    2.7250   -7.0850 ha        1 7YG      0.182000
     47 H17         4.8120    1.1610   -9.2060 h4        1 7YG      0.048100
     48 H311        3.8360    5.5710  -11.9720 hn        1 7YG      0.487800
     49 H312        5.1310    4.4840  -12.2890 hn        1 7YG      0.487800
     50 H24         1.9370    6.1060   -8.0880 hn        1 7YG      0.331500
     51 H26         0.5630    7.7210  -11.1930 ha        1 7YG      0.176000
     52 H30         1.2180    7.9820   -6.8620 h4        1 7YG      0.016100
     53 H27        -0.6740    9.8830  -11.0140 ha        1 7YG      0.162000
     54 H28        -0.9130   10.9970   -8.7500 h4        1 7YG      0.041100
     55 H21        -0.0940   -2.0770    0.9170 hn        1 7YG      0.455800
     56 H62         2.9560   -0.4630   -1.9950 hn        1 7YG      0.393300
@<TRIPOS>BOND
     1    1    2 1   
     2    1   32 1   
     3    1   33 1   
     4    1   34 1   
     5    2    3 1   
     6    2    4 1   
     7    2   55 1   
     8    3   35 1   
     9    3   36 1   
    10    3   37 1   
    11    4    5 1   
    12    4   38 1   
    13    4   39 1   
    14    5    6 1   
    15    5   40 1   
    16    5   41 1   
    17    6   42 1   
    18    6   56 1   
    19    7    8 1   
    20    7    9 1   
    21    7   10 1   
    22   10   11 ar  
    23   10   15 ar  
    24   11   12 ar  
    25   11   43 1   
    26   12   13 ar  
    27   12   45 1   
    28   13   14 ar  
    29   13   16 1   
    30   14   15 ar  
    31   14   46 1   
    32   15   44 1   
    33   16   17 ar  
    34   16   21 ar  
    35   17   18 ar  
    36   17   47 1   
    37   18   19 ar  
    38   19   20 ar  
    39   19   31 1   
    40   20   21 ar  
    41   20   22 1   
    42   22   23 2   
    43   22   24 1   
    44   24   25 1   
    45   24   50 1   
    46   25   26 ar  
    47   25   30 ar  
    48   26   27 ar  
    49   26   51 1   
    50   27   28 ar  
    51   27   53 1   
    52   28   29 ar  
    53   28   54 1   
    54   29   30 ar  
    55   30   52 1   
    56   31   48 1   
    57   31   49 1   
@<TRIPOS>SUBSTRUCTURE
     1 7YG         1 TEMP              0 ****  ****    0 ROOT
