@<TRIPOS>MOLECULE
7YG
   56    57     1     0     0
SMALL
bcc


@<TRIPOS>ATOM
      1 C1          1.4810   -3.3350    1.2780 c3        1 7YG      0.079600
      2 N2          0.8870   -1.9700    1.2760 n4        1 7YG     -0.673400
      3 C3          0.8520   -1.4190    2.6610 c3        1 7YG      0.079600
      4 C4          1.6290   -1.0440    0.3640 c3        1 7YG      0.062800
      5 C5          1.3190   -1.2860   -1.1310 c3        1 7YG      0.114800
      6 N6          1.9670   -0.3720   -2.0420 n3        1 7YG     -0.967800
      7 S7          1.1310   -1.1680   -4.4260 s4        1 7YG      1.685300
      8 O8          1.8220   -2.3030   -4.1270 o         1 7YG     -0.452900
      9 O9         -0.1050   -0.9660   -3.8910 o         1 7YG     -0.452900
     10 C10         1.6850   -0.1950   -5.4370 ca        1 7YG     -0.712500
     11 C11         2.9420   -0.4010   -6.0980 ca        1 7YG      0.036500
     12 C12         3.4070    0.4390   -7.0700 ca        1 7YG     -0.174500
     13 C13         2.6600    1.5810   -7.4860 cp        1 7YG      0.118500
     14 C14         1.4240    1.8260   -6.8110 ca        1 7YG     -0.174500
     15 C15         0.9630    0.9800   -5.8440 ca        1 7YG      0.036500
     16 C16         3.1180    2.4330   -8.5380 cp        1 7YG      0.140500
     17 C17         4.2430    2.0840   -9.3680 ca        1 7YG      0.458900
     18 N18         4.6650    2.8130  -10.3860 nb        1 7YG     -0.725000
     19 C19         3.9740    3.9940  -10.6760 ca        1 7YG      0.670900
     20 C20         2.8430    4.3780   -9.7940 ca        1 7YG      0.195500
     21 N21         2.4510    3.6160   -8.7900 nb        1 7YG     -0.552000
     22 C22         2.0890    5.6600  -10.0990 c         1 7YG      0.582600
     23 O23         1.8760    5.9610  -11.2900 o         1 7YG     -0.596100
     24 N24         1.7100    6.4210   -9.0230 n         1 7YG     -0.423100
     25 C25         0.9870    7.6300   -9.0670 ca        1 7YG     -0.086700
     26 C26         0.4330    8.1830  -10.2390 ca        1 7YG     -0.105000
     27 C27        -0.2630    9.3870  -10.1490 ca        1 7YG     -0.214300
     28 C28        -0.3970   10.0120   -8.8980 ca        1 7YG      0.391200
     29 N29         0.1200    9.5000   -7.7630 nb        1 7YG     -0.635000
     30 C30         0.7940    8.3450   -7.8450 ca        1 7YG      0.363200
     31 N31         4.3610    4.7420  -11.7190 nh        1 7YG     -0.851500
     32 H11C        0.8610   -4.0060    1.9340 hx        1 7YG      0.113200
     33 H12C        1.4910   -3.7420    0.2320 hx        1 7YG      0.113200
     34 H13C        2.5290   -3.2910    1.6780 hx        1 7YG      0.113200
     35 H31C        0.3140   -0.4330    2.6610 hx        1 7YG      0.113200
     36 H32C        1.9010   -1.2790    3.0370 hx        1 7YG      0.113200
     37 H33C        0.3080   -2.1410    3.3300 hx        1 7YG      0.113200
     38 H41C        2.7320   -1.1760    0.5600 hx        1 7YG      0.110200
     39 H42C        1.3430    0.0130    0.6410 hx        1 7YG      0.110200
     40 H51C        0.2040   -1.2000   -1.3020 h1        1 7YG      0.096700
     41 H52C        1.6400   -2.3320   -1.4170 h1        1 7YG      0.096700
     42 H6          2.9680   -0.4460   -1.9830 hn        1 7YG      0.393300
     43 H11         3.5420   -1.2850   -5.8060 ha        1 7YG      0.165000
     44 H15        -0.0100    1.1830   -5.3560 ha        1 7YG      0.165000
     45 H12         4.3850    0.2240   -7.5330 ha        1 7YG      0.182000
     46 H14         0.8180    2.7080   -7.0900 ha        1 7YG      0.182000
     47 H17         4.8170    1.1500   -9.2030 h4        1 7YG      0.048100
     48 H311        3.8240    5.5450  -11.9890 hn        1 7YG      0.487800
     49 H312        5.1230    4.4610  -12.3010 hn        1 7YG      0.487800
     50 H24         1.9250    6.0900   -8.1070 hn        1 7YG      0.331500
     51 H26         0.5410    7.6850  -11.2170 ha        1 7YG      0.176000
     52 H30         1.2030    7.9710   -6.8890 h4        1 7YG      0.016100
     53 H27        -0.7040    9.8430  -11.0480 ha        1 7YG      0.162000
     54 H28        -0.9420   10.9690   -8.7890 h4        1 7YG      0.041100
     55 H21        -0.0840   -2.0440    0.9370 hn        1 7YG      0.455800
     56 H62         1.6950    0.5780   -1.8620 hn        1 7YG      0.393300
@<TRIPOS>BOND
     1    1    2 1   
     2    1   32 1   
     3    1   33 1   
     4    1   34 1   
     5    2    3 1   
     6    2    4 1   
     7    2   55 1   
     8    3   35 1   
     9    3   36 1   
    10    3   37 1   
    11    4    5 1   
    12    4   38 1   
    13    4   39 1   
    14    5    6 1   
    15    5   40 1   
    16    5   41 1   
    17    6   42 1   
    18    6   56 1   
    19    7    8 1   
    20    7    9 1   
    21    7   10 1   
    22   10   11 ar  
    23   10   15 ar  
    24   11   12 ar  
    25   11   43 1   
    26   12   13 ar  
    27   12   45 1   
    28   13   14 ar  
    29   13   16 1   
    30   14   15 ar  
    31   14   46 1   
    32   15   44 1   
    33   16   17 ar  
    34   16   21 ar  
    35   17   18 ar  
    36   17   47 1   
    37   18   19 ar  
    38   19   20 ar  
    39   19   31 1   
    40   20   21 ar  
    41   20   22 1   
    42   22   23 2   
    43   22   24 1   
    44   24   25 1   
    45   24   50 1   
    46   25   26 ar  
    47   25   30 ar  
    48   26   27 ar  
    49   26   51 1   
    50   27   28 ar  
    51   27   53 1   
    52   28   29 ar  
    53   28   54 1   
    54   29   30 ar  
    55   30   52 1   
    56   31   48 1   
    57   31   49 1   
@<TRIPOS>SUBSTRUCTURE
     1 7YG         1 TEMP              0 ****  ****    0 ROOT
