@<TRIPOS>MOLECULE
7Z3
   30    31     1     0     0
SMALL
bcc


@<TRIPOS>ATOM
      1 C1         -0.1090   -0.0120   -0.0950 c3        1 7Z3      0.173100
      2 N1          1.3120    0.4170   -0.3290 n4        1 7Z3     -0.844600
      3 C2         -0.4270    0.0150    1.3610 ca        1 7Z3     -0.142300
      4 N2         -1.0270   -2.3530    4.1430 nh        1 7Z3     -0.665000
      5 C3         -0.6620    1.2430    1.9820 ca        1 7Z3     -0.182000
      6 C4         -0.9900    1.2610    3.3390 ca        1 7Z3     -0.068000
      7 C5         -1.0830    0.0860    4.0660 ca        1 7Z3     -0.165000
      8 C6         -0.8530   -1.1780    3.4470 ca        1 7Z3      0.221600
      9 C7         -1.1670   -2.3850    5.5900 c3        1 7Z3      0.204300
     10 C8         -0.9360   -3.8350    6.0450 c3        1 7Z3     -0.089400
     11 C9         -0.5810   -4.6330    4.7940 c3        1 7Z3     -0.089400
     12 C10        -0.6040   -3.6410    3.6200 c3        1 7Z3      0.204300
     13 C11        -0.5050   -1.1830    2.0690 ca        1 7Z3     -0.195000
     14 H11C       -0.7740    0.7030   -0.6620 hx        1 7Z3      0.111200
     15 H12C       -0.2280   -1.0480   -0.5260 hx        1 7Z3      0.111200
     16 H11N        1.4600    1.3430    0.0890 hn        1 7Z3      0.457133
     17 H12N        1.9530   -0.2430    0.1220 hn        1 7Z3      0.457133
     18 H3         -0.6230    2.1830    1.4140 ha        1 7Z3      0.131000
     19 H11        -0.3330   -2.1360    1.5480 ha        1 7Z3      0.139000
     20 H71C       -2.2030   -2.0380    5.8610 h1        1 7Z3      0.049450
     21 H72C       -0.4250   -1.6950    6.0800 h1        1 7Z3      0.049450
     22 H101        0.4160   -3.5670    3.1470 h1        1 7Z3      0.049450
     23 H102       -1.3330   -3.9700    2.8290 h1        1 7Z3      0.049450
     24 H4         -1.1840    2.2250    3.8380 ha        1 7Z3      0.155000
     25 H5         -1.3570    0.1360    5.1330 ha        1 7Z3      0.158000
     26 H81C       -1.8600   -4.2390    6.5270 hc        1 7Z3      0.065700
     27 H82C       -0.1110   -3.8770    6.7960 hc        1 7Z3      0.065700
     28 H91C        0.4310   -5.0970    4.8870 hc        1 7Z3      0.065700
     29 H92C       -1.3200   -5.4520    4.6200 hc        1 7Z3      0.065700
     30 H13         1.5160    0.4580   -1.3300 hn        1 7Z3      0.457133
@<TRIPOS>BOND
     1    1    2 1   
     2    1    3 1   
     3    1   14 1   
     4    1   15 1   
     5    2   16 1   
     6    2   17 1   
     7    2   30 1   
     8    3    5 ar  
     9    3   13 ar  
    10    4    8 1   
    11    4    9 1   
    12    4   12 1   
    13    5    6 ar  
    14    5   18 1   
    15    6    7 ar  
    16    6   24 1   
    17    7    8 ar  
    18    7   25 1   
    19    8   13 ar  
    20    9   10 1   
    21    9   20 1   
    22    9   21 1   
    23   10   11 1   
    24   10   26 1   
    25   10   27 1   
    26   11   12 1   
    27   11   28 1   
    28   11   29 1   
    29   12   22 1   
    30   12   23 1   
    31   13   19 1   
@<TRIPOS>SUBSTRUCTURE
     1 7Z3         1 TEMP              0 ****  ****    0 ROOT
