@<TRIPOS>MOLECULE
7Z3
   29    30     1     0     0
SMALL
bcc


@<TRIPOS>ATOM
      1 C1         -3.3290    0.9360   -0.3980 c3        1 7Z3      0.201100
      2 N1         -3.2420    2.1130    0.4370 n3        1 7Z3     -0.915800
      3 C2         -2.1980   -0.0330   -0.2050 ca        1 7Z3     -0.063300
      4 N2          1.5260   -0.0680   -0.3480 nh        1 7Z3     -0.636000
      5 C3         -2.4730   -1.3810    0.0430 ca        1 7Z3     -0.169000
      6 C4         -1.4190   -2.2800    0.1810 ca        1 7Z3     -0.100000
      7 C5         -0.0990   -1.8550    0.0880 ca        1 7Z3     -0.185000
      8 C6          0.2000   -0.4920   -0.1540 ca        1 7Z3      0.152600
      9 C7          2.6040   -0.8740    0.2150 c3        1 7Z3      0.183300
     10 C8          3.7900    0.0530    0.5190 c3        1 7Z3     -0.089400
     11 C9          3.3000    1.4730    0.2630 c3        1 7Z3     -0.089400
     12 C10         1.8350    1.3500   -0.1830 c3        1 7Z3      0.183300
     13 C11        -0.8800    0.4110   -0.3040 ca        1 7Z3     -0.166000
     14 H11C       -4.3060    0.3820   -0.2530 h1        1 7Z3      0.034200
     15 H12C       -3.3110    1.2910   -1.4710 h1        1 7Z3      0.034200
     16 H11N       -4.1210    2.5900    0.4530 hn        1 7Z3      0.350300
     17 H12N       -2.9800    1.8750    1.3730 hn        1 7Z3      0.350300
     18 H3         -3.5120   -1.7310    0.1230 ha        1 7Z3      0.129000
     19 H11        -0.6970    1.4760   -0.5150 ha        1 7Z3      0.148000
     20 H71C        2.2840   -1.4080    1.1540 h1        1 7Z3      0.046450
     21 H72C        2.8870   -1.6510   -0.5460 h1        1 7Z3      0.046450
     22 H101        1.6720    1.8550   -1.1730 h1        1 7Z3      0.046450
     23 H102        1.1610    1.8430    0.5740 h1        1 7Z3      0.046450
     24 H4         -1.6310   -3.3440    0.3670 ha        1 7Z3      0.128000
     25 H5          0.7070   -2.5960    0.1880 ha        1 7Z3      0.132000
     26 H81C        4.1200   -0.0740    1.5790 hc        1 7Z3      0.050450
     27 H82C        4.6560   -0.1950   -0.1410 hc        1 7Z3      0.050450
     28 H91C        3.3730    2.0990    1.1850 hc        1 7Z3      0.050450
     29 H92C        3.9070    1.9670   -0.5350 hc        1 7Z3      0.050450
@<TRIPOS>BOND
     1    1    2 1   
     2    1    3 1   
     3    1   14 1   
     4    1   15 1   
     5    2   16 1   
     6    2   17 1   
     7    3    5 ar  
     8    3   13 ar  
     9    4    8 1   
    10    4    9 1   
    11    4   12 1   
    12    5    6 ar  
    13    5   18 1   
    14    6    7 ar  
    15    6   24 1   
    16    7    8 ar  
    17    7   25 1   
    18    8   13 ar  
    19    9   10 1   
    20    9   20 1   
    21    9   21 1   
    22   10   11 1   
    23   10   26 1   
    24   10   27 1   
    25   11   12 1   
    26   11   28 1   
    27   11   29 1   
    28   12   22 1   
    29   12   23 1   
    30   13   19 1   
@<TRIPOS>SUBSTRUCTURE
     1 7Z3         1 TEMP              0 ****  ****    0 ROOT
