@<TRIPOS>MOLECULE
7Z3
   29    28     1     0     0
SMALL
bcc


@<TRIPOS>ATOM
      1 C1          2.2310    0.1080   -2.6530 c3        1 7Z3     -0.050000
      2 N1          2.9100   -1.0790   -3.0570 n3        1 7Z3     -0.333000
      3 C2          1.7260   -0.0570   -1.2370 c2        1 7Z3     -0.118000
      4 N2         -1.2660    0.7470    0.1200 n3        1 7Z3     -0.210000
      5 C3          2.6090   -0.3860   -0.2200 c1        1 7Z3     -0.138000
      6 C4          2.1500   -0.5160    1.0810 c1        1 7Z3     -0.139500
      7 C5          0.8090   -0.3170    1.3660 c1        1 7Z3     -0.139500
      8 C6         -0.0740    0.0130    0.3500 c1        1 7Z3      0.012000
      9 C7         -2.5100   -0.2570    0.0730 c3        1 7Z3     -0.077500
     10 C8         -2.8320   -0.5120    1.3370 c3        1 7Z3     -0.180000
     11 C9         -2.3770    0.7200    2.1190 c3        1 7Z3     -0.180000
     12 C10        -1.4840    1.5450    1.1220 c3        1 7Z3     -0.077500
     13 C11         0.3840    0.1430   -0.9510 c2        1 7Z3     -0.109000
     14 H11C        1.4740    0.2710   -3.2530 h1        1 7Z3      0.099500
     15 H12C        2.8490    0.8670   -2.6930 h1        1 7Z3      0.099500
     16 H11N        3.7150   -1.1330   -2.6230 hn        1 7Z3      0.142000
     17 H12N        2.3990   -1.8090   -2.8460 hn        1 7Z3      0.142000
     18 H3          3.5540   -0.5260   -0.4210 ha        1 7Z3      0.130000
     19 H11        -0.2400    0.3580   -1.6700 ha        1 7Z3      0.145000
     20 H71C       -2.2570   -1.0850   -0.3840 h1        1 7Z3      0.092750
     21 H72C       -3.2650    0.1650   -0.3880 h1        1 7Z3      0.092750
     22 H101       -0.6370    1.7930    1.5500 h1        1 7Z3      0.092750
     23 H102       -1.9610    2.3460    0.8220 h1        1 7Z3      0.092750
     24 H4          2.7720   -0.7480    1.7970 ha        1 7Z3      0.131500
     25 H5          0.4860   -0.4080    2.2830 ha        1 7Z3      0.131500
     26 H81C       -2.3590   -1.3100    1.6540 hc        1 7Z3      0.087250
     27 H82C       -3.8000   -0.6320    1.4250 hc        1 7Z3      0.087250
     28 H91C       -1.8530    0.4510    2.9000 hc        1 7Z3      0.087250
     29 H92C       -3.1520    1.2490    2.3970 hc        1 7Z3      0.087250
@<TRIPOS>BOND
     1    1    2 1   
     2    1    3 1   
     3    1   14 1   
     4    1   15 1   
     5    2   16 1   
     6    2   17 1   
     7    3    5 1   
     8    3   13 1   
     9    4    8 1   
    10    4    9 1   
    11    4   12 1   
    12    5   18 1   
    13    6    7 1   
    14    6   24 1   
    15    7   25 1   
    16    8   13 1   
    17    9   10 1   
    18    9   20 1   
    19    9   21 1   
    20   10   11 1   
    21   10   26 1   
    22   10   27 1   
    23   11   12 1   
    24   11   28 1   
    25   11   29 1   
    26   12   22 1   
    27   12   23 1   
    28   13   19 1   
@<TRIPOS>SUBSTRUCTURE
     1 7Z3         1 TEMP              0 ****  ****    0 ROOT
