@<TRIPOS>MOLECULE
7Z3
   30    31     1     0     0
SMALL
bcc


@<TRIPOS>ATOM
      1 C1         -0.1080   -0.0160   -0.0960 c3        1 7Z3      0.173100
      2 N1          1.3120    0.4160   -0.3310 n4        1 7Z3     -0.844600
      3 C2         -0.4270    0.0130    1.3590 ca        1 7Z3     -0.142300
      4 N2         -1.0270   -2.3520    4.1440 nh        1 7Z3     -0.665000
      5 C3         -0.6620    1.2420    1.9790 ca        1 7Z3     -0.183000
      6 C4         -0.9900    1.2610    3.3360 ca        1 7Z3     -0.068000
      7 C5         -1.0830    0.0870    4.0640 ca        1 7Z3     -0.165000
      8 C6         -0.8530   -1.1770    3.4470 ca        1 7Z3      0.221600
      9 C7         -1.1680   -2.3820    5.5910 c3        1 7Z3      0.204300
     10 C8         -0.9370   -3.8320    6.0470 c3        1 7Z3     -0.088900
     11 C9         -0.5810   -4.6310    4.7980 c3        1 7Z3     -0.088900
     12 C10        -0.6030   -3.6400    3.6230 c3        1 7Z3      0.204300
     13 C11        -0.5050   -1.1840    2.0690 ca        1 7Z3     -0.195000
     14 H11C       -0.7750    0.6960   -0.6650 hx        1 7Z3      0.111200
     15 H12C       -0.2260   -1.0530   -0.5260 hx        1 7Z3      0.111200
     16 H11N        1.9540   -0.2430    0.1210 hn        1 7Z3      0.457133
     17 H12N        1.4580    1.3430    0.0850 hn        1 7Z3      0.457133
     18 H3         -0.6240    2.1800    1.4090 ha        1 7Z3      0.131000
     19 H11        -0.3320   -2.1380    1.5490 ha        1 7Z3      0.139000
     20 H71C       -2.2030   -2.0350    5.8620 h1        1 7Z3      0.049450
     21 H72C       -0.4260   -1.6920    6.0810 h1        1 7Z3      0.049450
     22 H101        0.4170   -3.5670    3.1510 h1        1 7Z3      0.049450
     23 H102       -1.3320   -3.9700    2.8320 h1        1 7Z3      0.049450
     24 H4         -1.1840    2.2260    3.8330 ha        1 7Z3      0.155000
     25 H5         -1.3580    0.1380    5.1310 ha        1 7Z3      0.158000
     26 H81C       -1.8610   -4.2360    6.5290 hc        1 7Z3      0.065700
     27 H82C       -0.1120   -3.8730    6.8000 hc        1 7Z3      0.065700
     28 H91C       -1.3210   -5.4510    4.6240 hc        1 7Z3      0.065700
     29 H92C        0.4310   -5.0950    4.8920 hc        1 7Z3      0.065700
     30 H13         1.5160    0.4550   -1.3320 hn        1 7Z3      0.457133
@<TRIPOS>BOND
     1    1    2 1   
     2    1    3 1   
     3    1   14 1   
     4    1   15 1   
     5    2   16 1   
     6    2   17 1   
     7    2   30 1   
     8    3    5 ar  
     9    3   13 ar  
    10    4    8 1   
    11    4    9 1   
    12    4   12 1   
    13    5    6 ar  
    14    5   18 1   
    15    6    7 ar  
    16    6   24 1   
    17    7    8 ar  
    18    7   25 1   
    19    8   13 ar  
    20    9   10 1   
    21    9   20 1   
    22    9   21 1   
    23   10   11 1   
    24   10   26 1   
    25   10   27 1   
    26   11   12 1   
    27   11   28 1   
    28   11   29 1   
    29   12   22 1   
    30   12   23 1   
    31   13   19 1   
@<TRIPOS>SUBSTRUCTURE
     1 7Z3         1 TEMP              0 ****  ****    0 ROOT
