@<TRIPOS>MOLECULE
7Z3
   30    31     1     0     0
SMALL
bcc


@<TRIPOS>ATOM
      1 C1         -0.1090   -0.0080   -0.0930 c3        1 7Z3      0.173100
      2 N1          1.3130    0.4140   -0.3320 nz        1 7Z3     -0.844600
      3 C2         -0.4210    0.0190    1.3640 ca        1 7Z3     -0.142300
      4 N2         -1.0300   -2.3510    4.1430 nh        1 7Z3     -0.665000
      5 C3         -0.6440    1.2470    1.9890 ca        1 7Z3     -0.183000
      6 C4         -0.9660    1.2650    3.3480 ca        1 7Z3     -0.068000
      7 C5         -1.0660    0.0890    4.0720 ca        1 7Z3     -0.165000
      8 C6         -0.8490   -1.1750    3.4490 ca        1 7Z3      0.222600
      9 C7         -1.1650   -2.3850    5.5910 c3        1 7Z3      0.204300
     10 C8         -0.9460   -3.8380    6.0410 c3        1 7Z3     -0.088900
     11 C9         -0.6020   -4.6360    4.7870 c3        1 7Z3     -0.088900
     12 C10        -0.6200   -3.6410    3.6150 c3        1 7Z3      0.204300
     13 C11        -0.5070   -1.1800    2.0700 ca        1 7Z3     -0.195000
     14 H11C       -0.2370   -1.0420   -0.5260 hx        1 7Z3      0.111200
     15 H12C       -0.7730    0.7120   -0.6560 hx        1 7Z3      0.111200
     16 H11N        1.4680    1.3380    0.0870 hn        1 7Z3      0.457133
     17 H12N        1.5130    0.4550   -1.3340 hn        1 7Z3      0.457133
     18 H3         -0.6000    2.1880    1.4230 ha        1 7Z3      0.131000
     19 H11        -0.3440   -2.1340    1.5460 ha        1 7Z3      0.139000
     20 H71C       -0.4150   -1.7030    6.0800 h1        1 7Z3      0.049450
     21 H72C       -2.1970   -2.0300    5.8670 h1        1 7Z3      0.049450
     22 H101        0.3990   -3.5750    3.1400 h1        1 7Z3      0.049450
     23 H102       -1.3550   -3.9620    2.8260 h1        1 7Z3      0.049450
     24 H4         -1.1500    2.2290    3.8490 ha        1 7Z3      0.155000
     25 H5         -1.3350    0.1380    5.1400 ha        1 7Z3      0.158000
     26 H81C       -1.8710   -4.2360    6.5250 hc        1 7Z3      0.065700
     27 H82C       -0.1180   -3.8890    6.7890 hc        1 7Z3      0.065700
     28 H91C        0.4060   -5.1100    4.8750 hc        1 7Z3      0.065700
     29 H92C       -1.3500   -5.4480    4.6130 hc        1 7Z3      0.065700
     30 H13         1.9520   -0.2510    0.1150 hn        1 7Z3      0.457133
@<TRIPOS>BOND
     1    1    2 1   
     2    1    3 1   
     3    1   14 1   
     4    1   15 1   
     5    2   16 1   
     6    2   17 1   
     7    2   30 1   
     8    3    5 ar  
     9    3   13 ar  
    10    4    8 1   
    11    4    9 1   
    12    4   12 1   
    13    5    6 ar  
    14    5   18 1   
    15    6    7 ar  
    16    6   24 1   
    17    7    8 ar  
    18    7   25 1   
    19    8   13 ar  
    20    9   10 1   
    21    9   20 1   
    22    9   21 1   
    23   10   11 1   
    24   10   26 1   
    25   10   27 1   
    26   11   12 1   
    27   11   28 1   
    28   11   29 1   
    29   12   22 1   
    30   12   23 1   
    31   13   19 1   
@<TRIPOS>SUBSTRUCTURE
     1 7Z3         1 TEMP              0 ****  ****    0 ROOT
