@<TRIPOS>MOLECULE
7Z5
   41    37     1     0     0
SMALL
bcc


@<TRIPOS>ATOM
      1 CAA        -0.3800    0.4360   -2.0480 c1        1 7Z5     -0.138000
      2 CAB         1.0040    0.4600   -2.1040 c2        1 7Z5      0.084000
      3 CAC        -1.0320    0.3940   -0.7990 c1        1 7Z5     -0.118000
      4 CAD        -1.1920    0.6180   -3.3220 c1        1 7Z5      0.363000
      5 CAE         1.7590    0.4430   -0.9150 c1        1 7Z5     -0.177000
      6 NAF         1.6800    0.4650   -3.3900 n         1 7Z5     -0.303000
      7 CAG        -0.2840    0.3760    0.3810 c1        1 7Z5     -0.050000
      8 OAH        -1.6420   -0.4190   -3.9580 o         1 7Z5     -0.566500
      9 OAI        -1.4370    1.7830   -3.7550 o         1 7Z5     -0.566500
     10 CAJ         1.1080    0.4010    0.3260 c1        1 7Z5     -0.121000
     11 CAK         2.7500   -0.4550   -3.6250 c2        1 7Z5      0.298000
     12 NAL        -0.9040    0.5420    1.6670 n3        1 7Z5     -0.225000
     13 CAM         3.5250   -0.4130   -4.9260 c3        1 7Z5     -0.181000
     14 OAN         3.0880   -1.2400   -2.7320 o         1 7Z5     -0.405000
     15 CAO        -2.0620   -0.2150    2.0010 c3        1 7Z5     -0.029000
     16 CAP        -0.3710    1.5080    2.6150 c3        1 7Z5     -0.110000
     17 CAQ         3.4680   -1.7520   -5.5870 c3        1 7Z5     -0.223000
     18 CAR        -2.2930   -0.1580    3.5610 c2        1 7Z5     -0.108000
     19 CAS        -1.9230   -1.2270    4.3570 c2        1 7Z5     -0.074000
     20 CAT        -2.9770    0.9300    4.1270 c1        1 7Z5     -0.078000
     21 CAU        -2.2260   -1.2200    5.6970 c1        1 7Z5     -0.191000
     22 NAV        -3.2740    0.9320    5.4510 n1        1 7Z5     -0.151000
     23 CAW        -2.9030   -0.1400    6.2510 c1        1 7Z5     -0.090000
     24 HAC        -2.0410    0.3760   -0.7560 ha        1 7Z5      0.160000
     25 HAE         2.7560    0.4590   -0.9560 ha        1 7Z5      0.154000
     26 HNAF        1.3590    1.0190   -4.0940 hn        1 7Z5      0.285000
     27 HAJ         1.6470    0.3890    1.1800 ha        1 7Z5      0.119000
     28 HAM         4.4710   -0.1780   -4.7410 hc        1 7Z5      0.095000
     29 HAMA        3.1500    0.2300   -5.4930 hc        1 7Z5      0.095000
     30 HAO        -2.8230    0.1520    1.5510 h1        1 7Z5      0.096500
     31 HAOA       -1.9420   -1.1090    1.7350 h1        1 7Z5      0.096500
     32 HAP        -0.3390    2.3810    2.2060 h1        1 7Z5      0.067667
     33 HAPA       -0.9560    1.5390    3.4150 h1        1 7Z5      0.067667
     34 HAPB        0.5260    1.2420    2.8770 h1        1 7Z5      0.067667
     35 HAQ         2.5690   -1.9240   -5.8940 hc        1 7Z5      0.087000
     36 HAQA        3.7300   -2.4400   -4.9530 hc        1 7Z5      0.087000
     37 HAQB        4.0870   -1.7600   -6.3560 hc        1 7Z5      0.087000
     38 HAS        -1.3420   -1.9480    3.9840 ha        1 7Z5      0.158000
     39 HAT        -3.2990    1.6440    3.5600 ha        1 7Z5      0.159000
     40 HAU        -1.9540   -2.0060    6.2840 ha        1 7Z5      0.134000
     41 HAW        -3.0810   -0.1190    7.1760 ha        1 7Z5      0.145000
@<TRIPOS>BOND
     1    1    2 1   
     2    1    3 1   
     3    2    5 1   
     4    2    6 1   
     5    3   24 1   
     6    4    8 1   
     7    4    9 1   
     8    5   25 1   
     9    6   11 1   
    10    6   26 1   
    11    7   10 1   
    12    7   12 1   
    13   10   27 1   
    14   11   13 1   
    15   11   14 1   
    16   12   15 1   
    17   12   16 1   
    18   13   17 1   
    19   13   28 1   
    20   13   29 1   
    21   15   18 1   
    22   15   30 1   
    23   15   31 1   
    24   16   32 1   
    25   16   33 1   
    26   16   34 1   
    27   17   35 1   
    28   17   36 1   
    29   17   37 1   
    30   18   19 1   
    31   18   20 1   
    32   19   21 1   
    33   19   38 1   
    34   20   39 1   
    35   21   40 1   
    36   22   23 1   
    37   23   41 1   
@<TRIPOS>SUBSTRUCTURE
     1 7Z5         1 TEMP              0 ****  ****    0 ROOT
