@<TRIPOS>MOLECULE
7Z5
   41    42     1     0     0
SMALL
bcc


@<TRIPOS>ATOM
      1 CAA         0.5030    0.3730    0.3270 ca        1 7Z5     -0.154600
      2 CAB         1.6650   -0.4400    0.2170 ca        1 7Z5      0.077600
      3 CAC        -0.2230    0.3680    1.5150 ca        1 7Z5     -0.129000
      4 CAD        -0.0080    1.2970   -0.7730 c         1 7Z5      0.913200
      5 CAE         2.0520   -1.2160    1.3310 ca        1 7Z5     -0.176000
      6 NAF         2.3760   -0.4580   -0.9920 ns        1 7Z5     -0.458100
      7 CAG         0.1590   -0.4090    2.6260 ca        1 7Z5      0.039600
      8 OAH         0.2910    1.0640   -1.9840 o         1 7Z5     -0.829800
      9 OAI        -0.7300    2.2700   -0.4200 o         1 7Z5     -0.829800
     10 CAJ         1.3160   -1.2020    2.5080 ca        1 7Z5     -0.130000
     11 CAK         3.6270   -0.9760   -1.2320 c         1 7Z5      0.655100
     12 NAL        -0.6050   -0.4660    3.8370 nh        1 7Z5     -0.625000
     13 CAM         4.1420   -0.7860   -2.6560 c3        1 7Z5     -0.156400
     14 OAN         4.3230   -1.5720   -0.3800 o         1 7Z5     -0.646100
     15 CAO         0.0610    0.0810    5.0030 c3        1 7Z5      0.231100
     16 CAP        -1.9880   -0.0720    3.7110 c3        1 7Z5      0.167100
     17 CAQ         5.5000   -1.4110   -2.8340 c3        1 7Z5     -0.080100
     18 CAR         0.0270    1.5630    5.2340 ca        1 7Z5     -0.221600
     19 CAS         0.1550    2.4980    4.2000 ca        1 7Z5     -0.079000
     20 CAT        -0.0990    2.0530    6.5520 ca        1 7Z5      0.381200
     21 CAU         0.1500    3.8590    4.5120 ca        1 7Z5     -0.238300
     22 NAV        -0.1000    3.3600    6.8710 nb        1 7Z5     -0.682000
     23 CAW         0.0220    4.2410    5.8580 ca        1 7Z5      0.373200
     24 HAC        -1.1140    1.0200    1.5530 ha        1 7Z5      0.158000
     25 HAE         2.9530   -1.8480    1.2800 ha        1 7Z5      0.156000
     26 HNAF        1.9140    0.0290   -1.7520 hn        1 7Z5      0.377500
     27 HAJ         1.6510   -1.8270    3.3500 ha        1 7Z5      0.118000
     28 HAM         3.4120   -1.2440   -3.3740 hc        1 7Z5      0.063700
     29 HAMA        4.1920    0.3130   -2.8800 hc        1 7Z5      0.063700
     30 HAO         1.1470   -0.2310    4.9630 h1        1 7Z5      0.054200
     31 HAOA       -0.4100   -0.4250    5.8970 h1        1 7Z5      0.054200
     32 HAP        -2.4320   -0.5740    2.8120 h1        1 7Z5      0.033367
     33 HAPA       -2.5330   -0.4160    4.6300 h1        1 7Z5      0.033367
     34 HAPB       -2.1300    1.0390    3.6100 h1        1 7Z5      0.033367
     35 HAQ         5.8600   -1.2550   -3.8800 hc        1 7Z5      0.035700
     36 HAQA        6.2340   -0.9570   -2.1250 hc        1 7Z5      0.035700
     37 HAQB        5.4560   -2.5070   -2.6240 hc        1 7Z5      0.035700
     38 HAS         0.2550    2.1680    3.1500 ha        1 7Z5      0.180000
     39 HAT        -0.2040    1.3540    7.4010 h4        1 7Z5      0.009100
     40 HAU         0.2430    4.6140    3.7210 ha        1 7Z5      0.149000
     41 HAW         0.0150    5.3060    6.1460 h4        1 7Z5      0.009100
@<TRIPOS>BOND
     1    1    2 ar  
     2    1    3 ar  
     3    1    4 1   
     4    2    5 ar  
     5    2    6 1   
     6    3    7 ar  
     7    3   24 1   
     8    4    8 1   
     9    4    9 1   
    10    5   10 ar  
    11    5   25 1   
    12    6   11 1   
    13    6   26 1   
    14    7   10 ar  
    15    7   12 1   
    16   10   27 1   
    17   11   13 1   
    18   11   14 2   
    19   12   15 1   
    20   12   16 1   
    21   13   17 1   
    22   13   28 1   
    23   13   29 1   
    24   15   18 1   
    25   15   30 1   
    26   15   31 1   
    27   16   32 1   
    28   16   33 1   
    29   16   34 1   
    30   17   35 1   
    31   17   36 1   
    32   17   37 1   
    33   18   19 ar  
    34   18   20 ar  
    35   19   21 ar  
    36   19   38 1   
    37   20   22 ar  
    38   20   39 1   
    39   21   23 ar  
    40   21   40 1   
    41   22   23 ar  
    42   23   41 1   
@<TRIPOS>SUBSTRUCTURE
     1 7Z5         1 TEMP              0 ****  ****    0 ROOT
