@<TRIPOS>MOLECULE
7Z5
   41    42     1     0     0
SMALL
bcc


@<TRIPOS>ATOM
      1 CAA         0.5040    0.3520    0.3290 ca        1 7Z5     -0.154600
      2 CAB         1.6770   -0.4450    0.2250 ca        1 7Z5      0.077600
      3 CAC        -0.2210    0.3470    1.5180 ca        1 7Z5     -0.129000
      4 CAD        -0.0200    1.2600   -0.7780 c         1 7Z5      0.913200
      5 CAE         2.0750   -1.2060    1.3450 ca        1 7Z5     -0.176000
      6 NAF         2.3880   -0.4630   -0.9850 n         1 7Z5     -0.458100
      7 CAG         0.1720   -0.4150    2.6340 ca        1 7Z5      0.039600
      8 OAH         0.2810    1.0220   -1.9870 o         1 7Z5     -0.829800
      9 OAI        -0.7550    2.2260   -0.4330 o         1 7Z5     -0.829800
     10 CAJ         1.3400   -1.1930    2.5220 ca        1 7Z5     -0.130000
     11 CAK         3.6450   -0.9680   -1.2220 c         1 7Z5      0.655100
     12 NAL        -0.5900   -0.4720    3.8460 nh        1 7Z5     -0.625000
     13 CAM         4.1560   -0.7830   -2.6480 c3        1 7Z5     -0.156400
     14 OAN         4.3490   -1.5490   -0.3660 o         1 7Z5     -0.646100
     15 CAO         0.0690    0.0930    5.0080 c3        1 7Z5      0.231100
     16 CAP        -1.9790   -0.1000    3.7180 c3        1 7Z5      0.167100
     17 CAQ         5.5200   -1.3960   -2.8240 c3        1 7Z5     -0.080100
     18 CAR         0.0140    1.5770    5.2250 ca        1 7Z5     -0.222600
     19 CAS         0.1280    2.5050    4.1830 ca        1 7Z5     -0.079000
     20 CAT        -0.1190    2.0760    6.5390 ca        1 7Z5      0.381200
     21 CAU         0.1040    3.8680    4.4840 ca        1 7Z5     -0.238300
     22 NAV        -0.1390    3.3860    6.8480 nb        1 7Z5     -0.682000
     23 CAW        -0.0290    4.2600    5.8270 ca        1 7Z5      0.373200
     24 HAC        -1.1210    0.9880    1.5510 ha        1 7Z5      0.158000
     25 HAE         2.9860   -1.8260    1.2990 ha        1 7Z5      0.156000
     26 HNAF        1.9190    0.0120   -1.7480 hn        1 7Z5      0.377500
     27 HAJ         1.6840   -1.8060    3.3690 ha        1 7Z5      0.118000
     28 HAM         3.4290   -1.2520   -3.3620 hc        1 7Z5      0.063700
     29 HAMA        4.1970    0.3150   -2.8780 hc        1 7Z5      0.063700
     30 HAO         1.1590   -0.2030    4.9690 h1        1 7Z5      0.054200
     31 HAOA       -0.3940   -0.4120    5.9060 h1        1 7Z5      0.054200
     32 HAP        -2.4160   -0.6150    2.8230 h1        1 7Z5      0.033367
     33 HAPA       -2.5180   -0.4440    4.6400 h1        1 7Z5      0.033367
     34 HAPB       -2.1360    1.0090    3.6080 h1        1 7Z5      0.033367
     35 HAQ         6.2500   -0.9320   -2.1180 hc        1 7Z5      0.035700
     36 HAQA        5.8770   -1.2440   -3.8700 hc        1 7Z5      0.035700
     37 HAQB        5.4860   -2.4910   -2.6070 hc        1 7Z5      0.035700
     38 HAS         0.2320    2.1670    3.1360 ha        1 7Z5      0.180000
     39 HAT        -0.2140    1.3830    7.3940 h4        1 7Z5      0.009100
     40 HAU         0.1860    4.6180    3.6860 ha        1 7Z5      0.149000
     41 HAW        -0.0510    5.3280    6.1060 h4        1 7Z5      0.009100
@<TRIPOS>BOND
     1    1    2 ar  
     2    1    3 ar  
     3    1    4 1   
     4    2    5 ar  
     5    2    6 1   
     6    3    7 ar  
     7    3   24 1   
     8    4    8 1   
     9    4    9 1   
    10    5   10 ar  
    11    5   25 1   
    12    6   11 1   
    13    6   26 1   
    14    7   10 ar  
    15    7   12 1   
    16   10   27 1   
    17   11   13 1   
    18   11   14 2   
    19   12   15 1   
    20   12   16 1   
    21   13   17 1   
    22   13   28 1   
    23   13   29 1   
    24   15   18 1   
    25   15   30 1   
    26   15   31 1   
    27   16   32 1   
    28   16   33 1   
    29   16   34 1   
    30   17   35 1   
    31   17   36 1   
    32   17   37 1   
    33   18   19 ar  
    34   18   20 ar  
    35   19   21 ar  
    36   19   38 1   
    37   20   22 ar  
    38   20   39 1   
    39   21   23 ar  
    40   21   40 1   
    41   22   23 ar  
    42   23   41 1   
@<TRIPOS>SUBSTRUCTURE
     1 7Z5         1 TEMP              0 ****  ****    0 ROOT
