@<TRIPOS>MOLECULE
7Z5
   41    42     1     0     0
SMALL
bcc


@<TRIPOS>ATOM
      1 CAA        -1.1230    0.7710   -0.3360 ca        1 7Z5     -0.154600
      2 CAB        -1.8550   -0.2210    0.3720 ca        1 7Z5      0.077600
      3 CAC         0.1580    1.1090    0.0930 ca        1 7Z5     -0.129000
      4 CAD        -1.6320    1.4940   -1.5780 c         1 7Z5      0.913200
      5 CAE        -1.2460   -0.8440    1.4820 ca        1 7Z5     -0.176000
      6 NAF        -3.1580   -0.5360   -0.0420 n         1 7Z5     -0.458100
      7 CAG         0.7660    0.4920    1.2030 ca        1 7Z5      0.039600
      8 OAH        -2.8790    1.5910   -1.7860 o         1 7Z5     -0.829800
      9 OAI        -0.7670    1.9800   -2.3580 o         1 7Z5     -0.829800
     10 CAJ         0.0350   -0.4960    1.8900 ca        1 7Z5     -0.130000
     11 CAK        -3.9360   -1.6030    0.3440 c         1 7Z5      0.655100
     12 NAL         2.0610    0.8640    1.6890 nh        1 7Z5     -0.625000
     13 CAM        -5.2990   -1.6880   -0.3370 c3        1 7Z5     -0.156400
     14 OAN        -3.5960   -2.4580    1.1920 o         1 7Z5     -0.646100
     15 CAO         3.0750   -0.1680    1.5740 c3        1 7Z5      0.231100
     16 CAP         2.5130    2.1780    1.2950 c3        1 7Z5      0.167100
     17 CAQ        -6.0920   -2.8620    0.1720 c3        1 7Z5     -0.080100
     18 CAR         3.7870   -0.3470    0.2660 ca        1 7Z5     -0.221600
     19 CAS         3.1410   -0.2520   -0.9730 ca        1 7Z5     -0.079000
     20 CAT         5.1620   -0.6650    0.2680 ca        1 7Z5      0.381200
     21 CAU         3.8770   -0.4710   -2.1390 ca        1 7Z5     -0.238300
     22 NAV         5.8850   -0.8850   -0.8460 nb        1 7Z5     -0.682000
     23 CAW         5.2420   -0.7860   -2.0260 ca        1 7Z5      0.373200
     24 HAC         0.6880    1.8810   -0.4930 ha        1 7Z5      0.158000
     25 HAE        -1.7840   -1.6240    2.0450 ha        1 7Z5      0.156000
     26 HNAF       -3.5260    0.0800   -0.7580 hn        1 7Z5      0.377500
     27 HAJ         0.4690   -1.0030    2.7640 ha        1 7Z5      0.118000
     28 HAM        -5.8620   -0.7350   -0.1510 hc        1 7Z5      0.063700
     29 HAMA       -5.1450   -1.7800   -1.4450 hc        1 7Z5      0.063700
     30 HAO         3.8460    0.0640    2.3670 h1        1 7Z5      0.054200
     31 HAOA        2.5960   -1.1570    1.8370 h1        1 7Z5      0.054200
     32 HAP         1.6830    2.9140    1.4580 h1        1 7Z5      0.033367
     33 HAPA        3.3840    2.4560    1.9450 h1        1 7Z5      0.033367
     34 HAPB        2.8400    2.2340    0.2200 h1        1 7Z5      0.033367
     35 HAQ        -6.2590   -2.7730    1.2720 hc        1 7Z5      0.035700
     36 HAQA       -7.0810   -2.9090   -0.3440 hc        1 7Z5      0.035700
     37 HAQB       -5.5400   -3.8150   -0.0130 hc        1 7Z5      0.035700
     38 HAS         2.0660   -0.0030   -1.0300 ha        1 7Z5      0.180000
     39 HAT         5.7160   -0.7500    1.2200 h4        1 7Z5      0.009100
     40 HAU         3.3970   -0.3980   -3.1240 ha        1 7Z5      0.149000
     41 HAW         5.8570   -0.9680   -2.9240 h4        1 7Z5      0.009100
@<TRIPOS>BOND
     1    1    2 ar  
     2    1    3 ar  
     3    1    4 1   
     4    2    5 ar  
     5    2    6 1   
     6    3    7 ar  
     7    3   24 1   
     8    4    8 1   
     9    4    9 1   
    10    5   10 ar  
    11    5   25 1   
    12    6   11 1   
    13    6   26 1   
    14    7   10 ar  
    15    7   12 1   
    16   10   27 1   
    17   11   13 1   
    18   11   14 2   
    19   12   15 1   
    20   12   16 1   
    21   13   17 1   
    22   13   28 1   
    23   13   29 1   
    24   15   18 1   
    25   15   30 1   
    26   15   31 1   
    27   16   32 1   
    28   16   33 1   
    29   16   34 1   
    30   17   35 1   
    31   17   36 1   
    32   17   37 1   
    33   18   19 ar  
    34   18   20 ar  
    35   19   21 ar  
    36   19   38 1   
    37   20   22 ar  
    38   20   39 1   
    39   21   23 ar  
    40   21   40 1   
    41   22   23 ar  
    42   23   41 1   
@<TRIPOS>SUBSTRUCTURE
     1 7Z5         1 TEMP              0 ****  ****    0 ROOT
