@<TRIPOS>MOLECULE
7Z5
   43    44     1     0     0
SMALL
bcc


@<TRIPOS>ATOM
      1 CAA         0.5330    0.7370    0.3900 ca        1 7Z5     -0.246600
      2 CAB         1.6100   -0.1850    0.2320 ca        1 7Z5      0.181600
      3 CAC        -0.2370    0.7570    1.5510 ca        1 7Z5     -0.014000
      4 CAD         0.2310    1.7580   -0.6380 c         1 7Z5      0.628700
      5 CAE         1.8300   -1.1150    1.2890 ca        1 7Z5     -0.162000
      6 NAF         2.3890   -0.1380   -0.9090 n         1 7Z5     -0.483100
      7 CAG         0.0100   -0.1630    2.5780 ca        1 7Z5     -0.113400
      8 OAH         0.0180    1.3630   -1.9290 oh        1 7Z5     -0.571100
      9 OAI         0.1700    2.9710   -0.4620 o         1 7Z5     -0.442000
     10 CAJ         1.0520   -1.1030    2.4290 ca        1 7Z5     -0.052000
     11 CAK         3.4700   -0.9830   -1.2540 c         1 7Z5      0.673100
     12 NAL        -0.8060   -0.1310    3.7980 n4        1 7Z5     -0.547800
     13 CAM         4.1730   -0.6320   -2.5520 c3        1 7Z5     -0.146400
     14 OAN         3.7940   -1.9360   -0.5350 o         1 7Z5     -0.544100
     15 CAO         0.0030    0.2970    5.0070 c3        1 7Z5      0.188100
     16 CAP        -1.4600   -1.4460    4.0360 c3        1 7Z5      0.089100
     17 CAQ         5.2810   -1.6110   -2.8450 c3        1 7Z5     -0.095100
     18 CAR         0.0600    1.7750    5.1370 ca        1 7Z5     -0.304600
     19 CAS         1.2220    2.4940    4.8220 ca        1 7Z5     -0.046000
     20 CAT        -1.0530    2.4880    5.6350 ca        1 7Z5      0.417200
     21 CAU         1.2290    3.8750    5.0070 ca        1 7Z5     -0.233300
     22 NAV        -1.0610    3.8200    5.8100 nb        1 7Z5     -0.641000
     23 CAW         0.0640    4.4960    5.5000 ca        1 7Z5      0.445200
     24 HAC        -1.0310    1.5220    1.6340 ha        1 7Z5      0.168000
     25 HAE         2.6400   -1.8650    1.2110 ha        1 7Z5      0.210000
     26 HNAF        2.2030    0.6120   -1.5480 hn        1 7Z5      0.341500
     27 HAJ         1.2650   -1.8410    3.2220 ha        1 7Z5      0.156000
     28 HAM         4.5900    0.4070   -2.4700 hc        1 7Z5      0.080700
     29 HAMA        3.4250   -0.6390   -3.3900 hc        1 7Z5      0.080700
     30 HAO        -0.4950   -0.1490    5.9170 hx        1 7Z5      0.105700
     31 HAOA        1.0360   -0.1430    4.9040 hx        1 7Z5      0.105700
     32 HAP        -2.1960   -1.3430    4.8780 hx        1 7Z5      0.102367
     33 HAPA       -1.9940   -1.7680    3.1020 hx        1 7Z5      0.102367
     34 HAPB       -0.6850   -2.2110    4.3040 hx        1 7Z5      0.102367
     35 HAQ         5.7850   -1.3290   -3.8010 hc        1 7Z5      0.059700
     36 HAQA        6.0380   -1.6080   -2.0230 hc        1 7Z5      0.059700
     37 HAQB        4.8780   -2.6480   -2.9400 hc        1 7Z5      0.059700
     38 HAS         2.1180    1.9780    4.4420 ha        1 7Z5      0.151000
     39 HAT        -1.9840    1.9650    5.9230 h4        1 7Z5      0.023100
     40 HAU         2.1220    4.4740    4.7760 ha        1 7Z5      0.171000
     41 HAW         0.0240    5.5920    5.6600 h4        1 7Z5      0.053100
     42 HAF2       -0.1680    0.4130   -1.9660 ho        1 7Z5      0.438000
     43 HAL1       -1.5460    0.5750    3.6590 hn        1 7Z5      0.451800
@<TRIPOS>BOND
     1    1    2 ar  
     2    1    3 ar  
     3    1    4 1   
     4    2    5 ar  
     5    2    6 1   
     6    3    7 ar  
     7    3   24 1   
     8    4    8 1   
     9    4    9 2   
    10    5   10 ar  
    11    5   25 1   
    12    6   11 1   
    13    6   26 1   
    14    7   10 ar  
    15    7   12 1   
    16    8   42 1   
    17   10   27 1   
    18   11   13 1   
    19   11   14 2   
    20   12   15 1   
    21   12   16 1   
    22   12   43 1   
    23   13   17 1   
    24   13   28 1   
    25   13   29 1   
    26   15   18 1   
    27   15   30 1   
    28   15   31 1   
    29   16   32 1   
    30   16   33 1   
    31   16   34 1   
    32   17   35 1   
    33   17   36 1   
    34   17   37 1   
    35   18   19 ar  
    36   18   20 ar  
    37   19   21 ar  
    38   19   38 1   
    39   20   22 ar  
    40   20   39 1   
    41   21   23 ar  
    42   21   40 1   
    43   22   23 ar  
    44   23   41 1   
@<TRIPOS>SUBSTRUCTURE
     1 7Z5         1 TEMP              0 ****  ****    0 ROOT
