@<TRIPOS>MOLECULE
7ZE
   19    20     1     0     0
SMALL
bcc


@<TRIPOS>ATOM
      1 O1          0.0550   -0.0950    0.1110 o         1 7ZE     -0.207500
      2 N2          1.2460    0.0530    0.0550 no        1 7ZE      0.310200
      3 O3          1.9010    0.2750    1.0400 o         1 7ZE     -0.207500
      4 C4          1.9520   -0.0060   -1.2560 ca        1 7ZE     -0.152200
      5 C5          3.1330    0.7120   -1.3740 ca        1 7ZE     -0.055000
      6 C6          3.8380    0.7130   -2.5950 ca        1 7ZE     -0.144000
      7 C7          3.3780    0.0030   -3.6740 ca        1 7ZE     -0.119300
      8 C8          2.1710   -0.7620   -3.5780 ca        1 7ZE      0.384600
      9 N9          1.7530   -1.4730   -4.6890 nb        1 7ZE     -0.653000
     10 C10         0.6450   -2.1840   -4.5920 ca        1 7ZE      0.418200
     11 C11        -0.1460   -2.2650   -3.4040 ca        1 7ZE     -0.234300
     12 C12         0.2530   -1.5640   -2.2940 ca        1 7ZE     -0.081000
     13 C13         1.4390   -0.7720   -2.3470 ca        1 7ZE     -0.105300
     14 H1          3.5330    1.2870   -0.5200 ha        1 7ZE      0.171000
     15 H2          4.7690    1.2970   -2.6640 ha        1 7ZE      0.153000
     16 H3          3.9310    0.0080   -4.6290 ha        1 7ZE      0.163000
     17 H4          0.3380   -2.7390   -5.4980 h4        1 7ZE      0.030100
     18 H5         -1.0540   -2.8840   -3.3990 ha        1 7ZE      0.154000
     19 H6         -0.3480   -1.6110   -1.3700 ha        1 7ZE      0.175000
@<TRIPOS>BOND
     1    1    2 1   
     2    2    3 1   
     3    2    4 1   
     4    4    5 ar  
     5    4   13 ar  
     6    5    6 ar  
     7    5   14 1   
     8    6    7 ar  
     9    6   15 1   
    10    7    8 ar  
    11    7   16 1   
    12    8    9 ar  
    13    8   13 ar  
    14    9   10 ar  
    15   10   11 ar  
    16   10   17 1   
    17   11   12 ar  
    18   11   18 1   
    19   12   13 ar  
    20   12   19 1   
@<TRIPOS>SUBSTRUCTURE
     1 7ZE         1 TEMP              0 ****  ****    0 ROOT
