@<TRIPOS>MOLECULE
7ZE
   19    20     1     0     0
SMALL
bcc


@<TRIPOS>ATOM
      1 O1          0.0580   -0.0910    0.1120 o         1 7ZE     -0.207500
      2 N2          1.2500    0.0490    0.0570 no        1 7ZE      0.310200
      3 O3          1.9060    0.2620    1.0430 o         1 7ZE     -0.207500
      4 C4          1.9560   -0.0110   -1.2540 ca        1 7ZE     -0.152200
      5 C5          3.1420    0.6990   -1.3690 ca        1 7ZE     -0.055000
      6 C6          3.8480    0.6990   -2.5900 ca        1 7ZE     -0.144000
      7 C7          3.3830   -0.0050   -3.6710 ca        1 7ZE     -0.119300
      8 C8          2.1700   -0.7620   -3.5790 ca        1 7ZE      0.384600
      9 N9          1.7470   -1.4660   -4.6910 nb        1 7ZE     -0.653000
     10 C10         0.6350   -2.1700   -4.5970 ca        1 7ZE      0.418200
     11 C11        -0.1580   -2.2490   -3.4090 ca        1 7ZE     -0.234300
     12 C12         0.2460   -1.5540   -2.2970 ca        1 7ZE     -0.081000
     13 C13         1.4380   -0.7710   -2.3470 ca        1 7ZE     -0.105300
     14 H1          3.5460    1.2680   -0.5130 ha        1 7ZE      0.171000
     15 H2          4.7830    1.2760   -2.6580 ha        1 7ZE      0.153000
     16 H3          3.9360   -0.0010   -4.6260 ha        1 7ZE      0.163000
     17 H4          0.3240   -2.7200   -5.5050 h4        1 7ZE      0.030100
     18 H5         -1.0700   -2.8610   -3.4070 ha        1 7ZE      0.154000
     19 H6         -0.3550   -1.5990   -1.3740 ha        1 7ZE      0.175000
@<TRIPOS>BOND
     1    1    2 1   
     2    2    3 1   
     3    2    4 1   
     4    4    5 ar  
     5    4   13 ar  
     6    5    6 ar  
     7    5   14 1   
     8    6    7 ar  
     9    6   15 1   
    10    7    8 ar  
    11    7   16 1   
    12    8    9 ar  
    13    8   13 ar  
    14    9   10 ar  
    15   10   11 ar  
    16   10   17 1   
    17   11   12 ar  
    18   11   18 1   
    19   12   13 ar  
    20   12   19 1   
@<TRIPOS>SUBSTRUCTURE
     1 7ZE         1 TEMP              0 ****  ****    0 ROOT
