@<TRIPOS>MOLECULE
300
   22    19     1     0     0
SMALL
bcc


@<TRIPOS>ATOM
      1 C1         -0.4170    0.5220   -2.3740 c1        1 300      0.025500
      2 C2          0.9690    0.5350   -2.3300 c1        1 300     -0.152500
      3 C3          1.6260    0.5020   -1.1050 c1        1 300     -0.152500
      4 C4          0.8900    0.4570    0.0770 c1        1 300     -0.060400
      5 C5         -0.4880    0.4440    0.0330 c1        1 300      0.374600
      6 C6         -1.1460    0.4770   -1.1920 cg        1 300     -0.359200
      7 C10        -2.6990    0.5390   -1.2320 c         1 300      0.570100
      8 O11        -1.2280    0.5200    1.2300 os        1 300     -0.279000
      9 O12         1.5640    0.5620    1.3430 os        1 300     -0.355400
     10 C13         2.4950   -0.4750    1.5850 c3        1 300      0.109700
     11 P17        -1.5450   -0.8460    2.0140 p5        1 300      1.278900
     12 O18        -1.0290   -0.7440    3.4590 o         1 300     -0.837833
     13 O19        -3.0440   -1.0840    2.0290 o         1 300     -0.837833
     14 O20        -0.8410   -2.0240    1.2960 o         1 300     -0.837833
     15 O21        -3.3400    0.4980   -0.1880 o         1 300     -0.588100
     16 H1         -0.8800    0.5450   -3.2330 ha        1 300      0.011500
     17 H2          1.5050    0.5690   -3.1920 ha        1 300      0.027000
     18 H3          2.5720    0.5740   -1.0710 ha        1 300      0.027000
     19 H10        -3.1590    0.5720   -2.0800 h4        1 300     -0.085800
     20 H131        3.3130   -0.0940    2.1260 h1        1 300      0.041367
     21 H132        2.0590   -1.1980    2.1090 h1        1 300      0.041367
     22 H133        2.8220   -0.8510    0.6950 h1        1 300      0.041367
@<TRIPOS>BOND
     1    1    6 3   
     2    1   16 1   
     3    2    3 3   
     4    2   17 1   
     5    3   18 1   
     6    4    5 3   
     7    4    9 1   
     8    5    8 1   
     9    6    7 1   
    10    7   15 2   
    11    7   19 1   
    12    8   11 1   
    13    9   10 1   
    14   10   20 1   
    15   10   21 1   
    16   10   22 1   
    17   11   12 1   
    18   11   13 1   
    19   11   14 1   
@<TRIPOS>SUBSTRUCTURE
     1 300         1 TEMP              0 ****  ****    0 ROOT
