@<TRIPOS>MOLECULE
300
   22    21     1     0     0
SMALL
bcc


@<TRIPOS>ATOM
      1 C1         -2.2770    0.1590    2.2140 ca        1 300     -0.012000
      2 C2         -1.5780   -0.0430    3.3860 ca        1 300     -0.318000
      3 C3         -0.1950   -0.3200    3.3210 ca        1 300     -0.097000
      4 C4          0.4440   -0.4110    2.1070 ca        1 300     -0.096000
      5 C5         -0.2550   -0.2070    0.8380 ca        1 300      0.334000
      6 C6         -1.6610    0.0960    0.9570 ca        1 300     -0.389000
      7 C10        -2.4250    0.3380   -0.2490 c2        1 300      0.243000
      8 O11         0.3390   -0.3000   -0.2760 o         1 300     -0.525000
      9 O12         1.7770   -0.8150    2.1350 os        1 300     -0.253000
     10 C13         2.6750    0.0670    1.4630 c3        1 300     -0.086000
     11 P17         1.5420    0.1320   -2.2180 p3        1 300      2.483000
     12 O18         1.9570   -1.2440   -2.5660 o         1 300     -1.162333
     13 O19         2.5280    1.0150   -1.5520 o         1 300     -1.162333
     14 O20         0.3960    0.7380   -2.9290 o         1 300     -1.162333
     15 O21        -3.6560    0.5520   -0.2670 o         1 300     -0.447000
     16 H1         -3.3570    0.3800    2.2440 ha        1 300      0.099000
     17 H2         -2.0730    0.0100    4.3610 ha        1 300      0.082000
     18 H3          0.3690   -0.4830    4.2500 ha        1 300      0.089000
     19 H10        -1.8370    0.3300   -1.1990 h4        1 300      0.135000
     20 H131        3.6560   -0.4680    1.5130 h1        1 300      0.082333
     21 H132        2.3750    0.2420    0.3920 h1        1 300      0.082333
     22 H133        2.7370    1.0360    2.0180 h1        1 300      0.082333
@<TRIPOS>BOND
     1    1    2 1   
     2    1    6 1   
     3    1   16 1   
     4    2    3 1   
     5    2   17 1   
     6    3    4 1   
     7    3   18 1   
     8    4    5 1   
     9    4    9 1   
    10    5    6 1   
    11    5    8 1   
    12    6    7 1   
    13    7   15 1   
    14    7   19 1   
    15    9   10 1   
    16   10   20 1   
    17   10   21 1   
    18   10   22 1   
    19   11   12 1   
    20   11   13 1   
    21   11   14 1   
@<TRIPOS>SUBSTRUCTURE
     1 300         1 TEMP              0 ****  ****    0 ROOT
