@<TRIPOS>MOLECULE
300
   22    21     1     0     0
SMALL
bcc


@<TRIPOS>ATOM
      1 C1          0.0420    0.4880   -0.3840 ca        1 300     -0.012000
      2 C2          1.3400    0.9470   -0.4760 ca        1 300     -0.318000
      3 C3          2.1690    0.8920    0.6660 ca        1 300     -0.097000
      4 C4          1.6870    0.4100    1.8600 ca        1 300     -0.096000
      5 C5          0.3180   -0.0860    2.0070 ca        1 300      0.334000
      6 C6         -0.4840   -0.0310    0.8080 ca        1 300     -0.389000
      7 C10        -1.8430   -0.5250    0.8580 c2        1 300      0.243000
      8 O11        -0.1200   -0.5210    3.1110 o         1 300     -0.525000
      9 O12         2.5340    0.5140    2.9590 os        1 300     -0.253000
     10 C13         2.7580   -0.7130    3.6510 c3        1 300     -0.086000
     11 P17        -0.6930   -1.8550    4.9270 p3        1 300      2.483000
     12 O18        -0.8650   -0.8120    5.9600 o         1 300     -1.162333
     13 O19         0.5740   -2.6240    4.9110 o         1 300     -1.162333
     14 O20        -1.8910   -2.4260    4.2760 o         1 300     -1.162333
     15 O21        -2.6430   -0.4740   -0.1020 o         1 300     -0.447000
     16 H1         -0.6210    0.5180   -1.2640 ha        1 300      0.099000
     17 H2          1.7360    1.3490   -1.4140 ha        1 300      0.082000
     18 H3          3.2040    1.2570    0.6010 ha        1 300      0.089000
     19 H10        -2.1540   -0.9780    1.8300 h4        1 300      0.135000
     20 H131        1.7960   -1.1940    3.9830 h1        1 300      0.082333
     21 H132        3.3710   -0.4090    4.5370 h1        1 300      0.082333
     22 H133        3.3420   -1.4100    3.0010 h1        1 300      0.082333
@<TRIPOS>BOND
     1    1    2 1   
     2    1    6 1   
     3    1   16 1   
     4    2    3 1   
     5    2   17 1   
     6    3    4 1   
     7    3   18 1   
     8    4    5 1   
     9    4    9 1   
    10    5    6 1   
    11    5    8 1   
    12    6    7 1   
    13    7   15 1   
    14    7   19 1   
    15    9   10 1   
    16   10   20 1   
    17   10   21 1   
    18   10   22 1   
    19   11   12 1   
    20   11   13 1   
    21   11   14 1   
@<TRIPOS>SUBSTRUCTURE
     1 300         1 TEMP              0 ****  ****    0 ROOT
