@<TRIPOS>MOLECULE
300
   22    21     1     0     0
SMALL
bcc


@<TRIPOS>ATOM
      1 C1          0.0460    0.3680   -0.4210 ca        1 300     -0.012000
      2 C2          1.3170    0.8980   -0.5050 ca        1 300     -0.318000
      3 C3          2.1250    0.9310    0.6520 ca        1 300     -0.097000
      4 C4          1.6460    0.4630    1.8530 ca        1 300     -0.096000
      5 C5          0.3060   -0.1070    1.9920 ca        1 300      0.334000
      6 C6         -0.4730   -0.1390    0.7770 ca        1 300     -0.389000
      7 C10        -1.8030   -0.7100    0.8190 c2        1 300      0.243000
      8 O11        -0.1300   -0.5290    3.1020 o         1 300     -0.525000
      9 O12         2.4640    0.6520    2.9640 os        1 300     -0.253000
     10 C13         2.7440   -0.5360    3.7030 c3        1 300     -0.086000
     11 P17        -0.6620   -1.8330    4.9530 p3        1 300      2.483000
     12 O18        -0.9150   -0.7660    5.9450 o         1 300     -1.162333
     13 O19         0.6470   -2.5260    4.9880 o         1 300     -1.162333
     14 O20        -1.8110   -2.4940    4.3000 o         1 300     -1.162333
     15 O21        -2.5840   -0.7380   -0.1560 o         1 300     -0.447000
     16 H1         -0.5990    0.3310   -1.3150 ha        1 300      0.099000
     17 H2          1.7090    1.2910   -1.4490 ha        1 300      0.082000
     18 H3          3.1380    1.3530    0.5940 ha        1 300      0.089000
     19 H10        -2.1070   -1.1470    1.8010 h4        1 300      0.135000
     20 H131        1.8040   -1.0600    4.0330 h1        1 300      0.082333
     21 H132        3.3200   -0.1670    4.5880 h1        1 300      0.082333
     22 H133        3.3800   -1.2200    3.0880 h1        1 300      0.082333
@<TRIPOS>BOND
     1    1    2 1   
     2    1    6 1   
     3    1   16 1   
     4    2    3 1   
     5    2   17 1   
     6    3    4 1   
     7    3   18 1   
     8    4    5 1   
     9    4    9 1   
    10    5    6 1   
    11    5    8 1   
    12    6    7 1   
    13    7   15 1   
    14    7   19 1   
    15    9   10 1   
    16   10   20 1   
    17   10   21 1   
    18   10   22 1   
    19   11   12 1   
    20   11   13 1   
    21   11   14 1   
@<TRIPOS>SUBSTRUCTURE
     1 300         1 TEMP              0 ****  ****    0 ROOT
