@<TRIPOS>MOLECULE
301
   26    27     1     0     0
SMALL
bcc


@<TRIPOS>ATOM
      1 C15         5.9190    0.7120   -0.5980 c3        1 301     -0.069900
      2 C14         5.2060    0.2320    0.6000 c2        1 301     -0.161200
      3 C13         3.9130   -0.1030    0.6600 c2        1 301     -0.179200
      4 C12         2.9800   -0.0350   -0.4900 c3        1 301     -0.112500
      5 C11         1.6180   -0.5540   -0.1270 c2        1 301      0.493200
      6 N1         -1.0030   -1.8770   -0.2810 nb        1 301     -0.751000
      7 C2         -2.2920   -2.2770   -0.0920 ca        1 301      0.657900
      8 N3         -3.4040   -1.5320    0.1060 nb        1 301     -0.696000
      9 C4         -3.1470   -0.1920    0.1090 ca        1 301      0.422800
     10 C5         -1.8090    0.3820   -0.0870 ca        1 301     -0.141200
     11 C6         -0.7390   -0.5390   -0.2970 ca        1 301      0.693300
     12 N10         0.5440   -0.0210   -0.6010 ne        1 301     -0.649700
     13 N7         -1.8840    1.7810   -0.0210 nc        1 301     -0.515100
     14 C8         -3.1810    2.0520    0.1960 cd        1 301      0.410700
     15 N9         -3.9980    0.9040    0.2850 na        1 301     -0.382000
     16 H15         6.3390    1.7320   -0.4090 hc        1 301      0.044033
     17 H15A        6.7700    0.0250   -0.8380 hc        1 301      0.044033
     18 H15B        5.2510    0.7690   -1.4920 hc        1 301      0.044033
     19 H14         5.8310    0.1570    1.5080 ha        1 301      0.121000
     20 H13         3.4810   -0.4480    1.6140 ha        1 301      0.124000
     21 H12         2.9280    1.0210   -0.8750 hc        1 301      0.080200
     22 H12A        3.3620   -0.6750   -1.3360 hc        1 301      0.080200
     23 H11         1.6350   -1.4240    0.5680 h4        1 301     -0.008200
     24 H8         -3.6050    3.0580    0.3010 h5        1 301      0.075800
     25 HN9        -4.9710    0.8680    0.4350 hn        1 301      0.319700
     26 H2         -2.4500   -3.3770   -0.0990 h5        1 301      0.056100
@<TRIPOS>BOND
     1    1    2 1   
     2    1   16 1   
     3    1   17 1   
     4    1   18 1   
     5    2    3 2   
     6    2   19 1   
     7    3    4 1   
     8    3   20 1   
     9    4    5 1   
    10    4   21 1   
    11    4   22 1   
    12    5   12 2   
    13    5   23 1   
    14    6    7 ar  
    15    6   11 ar  
    16    7    8 ar  
    17    7   26 1   
    18    8    9 ar  
    19    9   10 ar  
    20    9   15 1   
    21   10   11 ar  
    22   10   13 1   
    23   11   12 1   
    24   13   14 2   
    25   14   15 1   
    26   14   24 1   
    27   15   25 1   
@<TRIPOS>SUBSTRUCTURE
     1 301         1 TEMP              0 ****  ****    0 ROOT
