@<TRIPOS>MOLECULE
301
   26    27     1     0     0
SMALL
bcc


@<TRIPOS>ATOM
      1 C15         0.1230    0.8890   -0.0640 c3        1 301     -0.069900
      2 C14         1.4600    0.2720    0.0180 c2        1 301     -0.161200
      3 C13         1.9230   -0.4580    1.0370 c2        1 301     -0.179200
      4 C12         1.1510   -0.7580    2.2670 c3        1 301     -0.112500
      5 C11         1.9140   -1.6670    3.1890 c2        1 301      0.493200
      6 N1          2.5600   -3.7690    5.1400 nb        1 301     -0.751000
      7 C2          3.1410   -4.5510    6.0930 ca        1 301      0.657900
      8 N3          3.7360   -4.1940    7.2540 nb        1 301     -0.696000
      9 C4          3.7280   -2.8450    7.4560 ca        1 301      0.422800
     10 C5          3.1350   -1.8820    6.5190 ca        1 301     -0.141200
     11 C6          2.5330   -2.4200    5.3410 ca        1 301      0.693300
     12 N10         1.8520   -1.5350    4.4700 ne        1 301     -0.649700
     13 N7          3.3010   -0.5810    7.0140 nc        1 301     -0.515100
     14 C8          3.9490   -0.7300    8.1800 cd        1 301      0.410700
     15 N9          4.2370   -2.0720    8.5070 na        1 301     -0.382000
     16 H15        -0.4970    0.6760    0.8410 hc        1 301      0.044367
     17 H15A        0.2210    1.9990   -0.1690 hc        1 301      0.044367
     18 H15B       -0.4230    0.5030   -0.9620 hc        1 301      0.044367
     19 H14         2.1040    0.4530   -0.8600 ha        1 301      0.121000
     20 H13         2.9460   -0.8700    0.9950 ha        1 301      0.124000
     21 H12         0.1920   -1.2880    2.0010 hc        1 301      0.080200
     22 H12A        0.8660    0.2020    2.7800 hc        1 301      0.080200
     23 H11         2.5140   -2.4440    2.6650 h4        1 301     -0.008200
     24 H8          4.2440    0.0910    8.8460 h5        1 301      0.075800
     25 HN9         4.6980   -2.4110    9.3090 hn        1 301      0.319700
     26 H2          3.1240   -5.6420    5.8810 h5        1 301      0.056100
@<TRIPOS>BOND
     1    1    2 1   
     2    1   16 1   
     3    1   17 1   
     4    1   18 1   
     5    2    3 2   
     6    2   19 1   
     7    3    4 1   
     8    3   20 1   
     9    4    5 1   
    10    4   21 1   
    11    4   22 1   
    12    5   12 2   
    13    5   23 1   
    14    6    7 ar  
    15    6   11 ar  
    16    7    8 ar  
    17    7   26 1   
    18    8    9 ar  
    19    9   10 ar  
    20    9   15 1   
    21   10   11 ar  
    22   10   13 1   
    23   11   12 1   
    24   13   14 2   
    25   14   15 1   
    26   14   24 1   
    27   15   25 1   
@<TRIPOS>SUBSTRUCTURE
     1 301         1 TEMP              0 ****  ****    0 ROOT
