@<TRIPOS>MOLECULE
301
   26    19     1     0     0
SMALL
bcc


@<TRIPOS>ATOM
      1 C15        -2.9230   -2.3370   -3.0180 c3        1 301     -0.192000
      2 C14        -2.1170   -3.1740   -2.0500 c2        1 301     -0.157000
      3 C13        -1.0630   -2.6330   -1.4080 c1        1 301     -0.175000
      4 C12        -0.6850   -1.1900   -1.6560 c2        1 301     -0.119000
      5 C11         0.3360   -0.7520   -0.6280 c2        1 301      0.000000
      6 N1          1.3760   -0.2480    2.1870 n1        1 301     -0.224000
      7 C2          1.9670    0.2500    3.3120 c1        1 301     -0.005000
      8 N3          2.1640    1.5930    3.4430 n1        1 301     -0.170000
      9 C4          1.7710    2.4400    2.4500 c1        1 301     -0.059500
     10 C5          1.1870    1.9490    1.3380 c1        1 301     -0.059500
     11 C6          0.9870    0.5840    1.2070 c1        1 301      0.146000
     12 N10         0.0300    0.1730    0.2430 n2        1 301     -0.143000
     13 N7          0.8970    2.9960    0.5190 n1        1 301     -0.159500
     14 C8          1.3050    4.1300    1.1310 c1        1 301     -0.045000
     15 N9          1.8450    3.7920    2.3230 n1        1 301     -0.159500
     16 H15        -3.6320   -2.8860   -3.4140 hc        1 301      0.083333
     17 H15A       -2.3350   -2.0010   -3.7270 hc        1 301      0.083333
     18 H15B       -3.3240   -1.5800   -2.5410 hc        1 301      0.083333
     19 H14        -2.3610   -4.1050   -1.8900 ha        1 301      0.122000
     20 H13        -0.5430   -3.1740   -0.7830 ha        1 301      0.127000
     21 H12        -1.4820   -0.6270   -1.5840 ha        1 301      0.118000
     22 H12A       -0.3030   -1.1020   -2.5520 ha        1 301      0.118000
     23 H11         1.2300   -1.1470   -0.6290 h4        1 301      0.121000
     24 H2          2.2490   -0.3560    4.0230 ha        1 301      0.193000
     25 H8          1.2290    5.0350    0.7710 DU        1 301      0.237500
     26 HN9         2.1970    4.3700    2.9350 DU        1 301      0.237500
@<TRIPOS>BOND
     1    1    2 1   
     2    1   16 1   
     3    1   17 1   
     4    1   18 1   
     5    2    3 1   
     6    2   19 1   
     7    3   20 1   
     8    4    5 1   
     9    4   21 1   
    10    4   22 1   
    11    5   12 1   
    12    5   23 1   
    13    6   11 1   
    14    7    8 1   
    15    7   24 1   
    16    9   10 1   
    17   11   12 1   
    18   13   14 1   
    19   14   15 1   
@<TRIPOS>SUBSTRUCTURE
     1 301         1 TEMP              0 ****  ****    0 ROOT
