@<TRIPOS>MOLECULE
301
   26    27     1     0     0
SMALL
bcc


@<TRIPOS>ATOM
      1 C15         0.1380    0.8820   -0.0780 c3        1 301     -0.069900
      2 C14         1.4720    0.2590    0.0090 c2        1 301     -0.161200
      3 C13         1.9310   -0.4660    1.0340 c2        1 301     -0.179200
      4 C12         1.1570   -0.7540    2.2660 c3        1 301     -0.112500
      5 C11         1.9110   -1.6650    3.1920 c2        1 301      0.493200
      6 N1          2.5370   -3.7640    5.1520 nb        1 301     -0.751000
      7 C2          3.1110   -4.5480    6.1090 ca        1 301      0.657900
      8 N3          3.7110   -4.1910    7.2680 nb        1 301     -0.696000
      9 C4          3.7170   -2.8410    7.4630 ca        1 301      0.422800
     10 C5          3.1320   -1.8770    6.5220 ca        1 301     -0.141200
     11 C6          2.5240   -2.4140    5.3470 ca        1 301      0.693300
     12 N10         1.8510   -1.5270    4.4720 ne        1 301     -0.649700
     13 N7          3.3110   -0.5750    7.0100 nc        1 301     -0.515100
     14 C8          3.9580   -0.7250    8.1770 cd        1 301      0.410700
     15 N9          4.2340   -2.0690    8.5100 na        1 301     -0.382000
     16 H15         0.2430    1.9900   -0.1970 hc        1 301      0.044033
     17 H15A       -0.4810    0.6860    0.8320 hc        1 301      0.044033
     18 H15B       -0.4110    0.4870   -0.9690 hc        1 301      0.044033
     19 H14         2.1180    0.4290   -0.8690 ha        1 301      0.121000
     20 H13         2.9510   -0.8840    0.9960 ha        1 301      0.124000
     21 H12         0.1920   -1.2750    2.0040 hc        1 301      0.080200
     22 H12A        0.8810    0.2120    2.7750 hc        1 301      0.080200
     23 H11         2.5030   -2.4510    2.6710 h4        1 301     -0.008200
     24 H8          4.2620    0.0960    8.8390 h5        1 301      0.075800
     25 HN9         4.6920   -2.4080    9.3130 hn        1 301      0.319700
     26 H2          3.0830   -5.6400    5.9020 h5        1 301      0.056100
@<TRIPOS>BOND
     1    1    2 1   
     2    1   16 1   
     3    1   17 1   
     4    1   18 1   
     5    2    3 2   
     6    2   19 1   
     7    3    4 1   
     8    3   20 1   
     9    4    5 1   
    10    4   21 1   
    11    4   22 1   
    12    5   12 2   
    13    5   23 1   
    14    6    7 ar  
    15    6   11 ar  
    16    7    8 ar  
    17    7   26 1   
    18    8    9 ar  
    19    9   10 ar  
    20    9   15 1   
    21   10   11 ar  
    22   10   13 1   
    23   11   12 1   
    24   13   14 2   
    25   14   15 1   
    26   14   24 1   
    27   15   25 1   
@<TRIPOS>SUBSTRUCTURE
     1 301         1 TEMP              0 ****  ****    0 ROOT
