@<TRIPOS>MOLECULE
301
   26    27     1     0     0
SMALL
bcc


@<TRIPOS>ATOM
      1 C15         0.1400    0.8950   -0.0710 c3        1 301     -0.069900
      2 C14         1.4720    0.2690    0.0130 c2        1 301     -0.161200
      3 C13         1.9310   -0.4590    1.0360 c2        1 301     -0.179200
      4 C12         1.1570   -0.7490    2.2680 c3        1 301     -0.112500
      5 C11         1.9110   -1.6630    3.1910 c2        1 301      0.493200
      6 N1          2.5350   -3.7680    5.1470 nb        1 301     -0.751000
      7 C2          3.1080   -4.5540    6.1010 ca        1 301      0.657900
      8 N3          3.7080   -4.2000    7.2610 nb        1 301     -0.696000
      9 C4          3.7160   -2.8510    7.4590 ca        1 301      0.422800
     10 C5          3.1330   -1.8840    6.5200 ca        1 301     -0.141200
     11 C6          2.5230   -2.4170    5.3450 ca        1 301      0.693300
     12 N10         1.8520   -1.5280    4.4720 ne        1 301     -0.649700
     13 N7          3.3130   -0.5830    7.0120 nc        1 301     -0.515100
     14 C8          3.9610   -0.7370    8.1770 cd        1 301      0.410700
     15 N9          4.2350   -2.0820    8.5070 na        1 301     -0.382000
     16 H15        -0.4790    0.6970    0.8380 hc        1 301      0.044033
     17 H15A        0.2450    2.0030   -0.1890 hc        1 301      0.044033
     18 H15B       -0.4110    0.5020   -0.9630 hc        1 301      0.044033
     19 H14         2.1180    0.4410   -0.8650 ha        1 301      0.121000
     20 H13         2.9500   -0.8790    0.9960 ha        1 301      0.124000
     21 H12         0.1920   -1.2680    2.0040 hc        1 301      0.080200
     22 H12A        0.8820    0.2160    2.7780 hc        1 301      0.080200
     23 H11         2.5020   -2.4480    2.6680 h4        1 301     -0.008200
     24 H8          4.2660    0.0820    8.8410 h5        1 301      0.075800
     25 HN9         4.6920   -2.4240    9.3100 hn        1 301      0.319700
     26 H2          3.0780   -5.6450    5.8920 h5        1 301      0.056100
@<TRIPOS>BOND
     1    1    2 1   
     2    1   16 1   
     3    1   17 1   
     4    1   18 1   
     5    2    3 2   
     6    2   19 1   
     7    3    4 1   
     8    3   20 1   
     9    4    5 1   
    10    4   21 1   
    11    4   22 1   
    12    5   12 2   
    13    5   23 1   
    14    6    7 ar  
    15    6   11 ar  
    16    7    8 ar  
    17    7   26 1   
    18    8    9 ar  
    19    9   10 ar  
    20    9   15 1   
    21   10   11 ar  
    22   10   13 1   
    23   11   12 1   
    24   13   14 2   
    25   14   15 1   
    26   14   24 1   
    27   15   25 1   
@<TRIPOS>SUBSTRUCTURE
     1 301         1 TEMP              0 ****  ****    0 ROOT
