@<TRIPOS>MOLECULE
302
   38    36     1     0     0
SMALL
bcc


@<TRIPOS>ATOM
      1 C1         -1.3300    1.3780   -2.5340 c1        1 302     -0.242900
      2 C3          2.8800    1.2920    1.5370 c1        1 302      0.798900
      3 C5          0.1020    0.4450   -0.6730 ce        1 302      0.505500
      4 C6         -1.0500    0.4320   -1.6780 ce        1 302     -0.063300
      5 N2          2.5380    0.1190    1.6360 n2        1 302     -0.845800
      6 N4          0.8140    1.5250   -0.4340 n2        1 302     -0.722400
      7 O37        -3.8820    5.7500   -8.9450 o         1 302     -0.756300
      8 O36        -3.8540    4.2030  -10.5940 o         1 302     -0.756300
      9 C28        -3.8460    3.4400   -8.3550 ce        1 302      0.077800
     10 C27        -4.2020    3.6370   -7.0250 ce        1 302     -0.215000
     11 C26        -4.2300    2.5750   -6.1350 cf        1 302      0.105000
     12 C29        -3.4740    2.1110   -8.8390 c3        1 302     -0.131000
     13 C30        -3.5610    1.0180   -7.8690 c2        1 302     -0.009200
     14 C24        -3.9230    1.2460   -6.5640 cf        1 302     -0.096700
     15 C20        -4.1160    0.1030   -5.6930 ch        1 302     -0.230300
     16 N19        -3.6190   -0.0600   -4.5040 n7        1 302     -0.286500
     17 O16        -3.9470   -1.1630   -3.8100 os        1 302     -0.182100
     18 C13        -4.3230   -2.3170   -4.5980 c3        1 302      0.002400
     19 C12        -5.3560   -1.9910   -5.6510 c         1 302      0.606900
     20 O11        -5.3330   -2.5300   -6.7600 o         1 302     -0.562100
     21 N10        -1.9560    3.1360   -4.2210 n2        1 302     -0.731800
     22 C9         -1.5810    2.3150   -3.3560 c1        1 302      0.218400
     23 O7          0.2740   -0.6920   -0.1090 o         1 302     -0.818300
     24 O8          3.4210    2.3690    1.6530 o         1 302     -0.533500
     25 H6         -1.6570   -0.4920   -1.6430 ha        1 302      0.135000
     26 HN2         1.8050   -0.3400    1.1310 hn        1 302      0.560400
     27 HN4         0.5370    2.3150   -0.9710 hn        1 302      0.345400
     28 H27        -4.5040    2.7430   -5.0770 ha        1 302      0.168000
     29 H26        -4.4430    4.6660   -6.6980 ha        1 302      0.195000
     30 H29        -2.4280    2.1770   -9.2810 hc        1 302      0.178200
     31 H30        -4.1190    1.8950   -9.7570 hc        1 302      0.178200
     32 H20        -3.3250   -0.0010   -8.2190 ha        1 302      0.167000
     33 H131       -3.0040    0.5200   -3.9360 hn        1 302      0.478800
     34 H132       -3.4020   -2.7680   -5.0520 h1        1 302      0.084700
     35 H121       -4.7520   -2.9990   -3.8150 h1        1 302      0.084700
     36 H122       -6.1710   -1.3120   -5.3290 h4        1 302      0.006200
     37 H9         -1.4250    3.9830   -4.2840 hn        1 302      0.411400
     38 C35        -3.8590    4.5850   -9.3970 c         1 302      0.875600
@<TRIPOS>BOND
     1    1    4 2   
     2    1   22 2   
     3    2    5 2   
     4    2   24 2   
     5    3    4 1   
     6    3    6 2   
     7    3   23 1   
     8    4   25 1   
     9    5   26 1   
    10    6   27 1   
    11    7   38 1   
    12    8   38 1   
    13    9   10 1   
    14    9   12 1   
    15    9   38 2   
    16   10   11 2   
    17   10   29 1   
    18   11   14 1   
    19   11   28 1   
    20   12   13 1   
    21   12   30 1   
    22   12   31 1   
    23   13   14 2   
    24   13   32 1   
    25   14   15 1   
    26   15   16 3   
    27   16   17 1   
    28   16   33 1   
    29   17   18 1   
    30   18   19 1   
    31   18   34 1   
    32   18   35 1   
    33   19   20 2   
    34   19   36 1   
    35   21   22 2   
    36   21   37 1   
@<TRIPOS>SUBSTRUCTURE
     1 302         1 TEMP              0 ****  ****    0 ROOT
