@<TRIPOS>MOLECULE
302
   38    39     1     0     0
SMALL
bcc


@<TRIPOS>ATOM
      1 C1          2.5000    4.7480   -1.5020 cc        1 302      0.074000
      2 C3          3.7850    3.6940   -3.2840 c         1 302      0.806500
      3 C5          3.7560    6.1480   -3.0980 c         1 302      0.717700
      4 C6          2.8790    5.9900   -1.9340 cd        1 302     -0.318200
      5 N2          2.9390    3.6060   -2.1580 n         1 302     -0.460100
      6 N4          4.1750    4.9630   -3.7310 n         1 302     -0.586500
      7 O37         0.2020    2.0870   12.5550 o         1 302     -0.824300
      8 O36        -1.9250    2.6380   12.1480 o         1 302     -0.824300
      9 C28        -0.4770    2.3130   10.2760 ca        1 302     -0.096600
     10 C27         0.8020    1.9980    9.8010 ca        1 302     -0.122500
     11 C26         1.0610    1.9620    8.4360 ca        1 302     -0.121500
     12 C29        -1.4920    2.5920    9.3570 ca        1 302     -0.122500
     13 C30        -1.2430    2.5590    7.9870 ca        1 302     -0.121500
     14 C24         0.0380    2.2420    7.5130 ca        1 302     -0.190900
     15 C20         0.3670    2.1870    6.0910 ce        1 302      0.453800
     16 N19        -0.4970    2.4160    5.1380 n2        1 302     -0.477200
     17 O16         0.0200    2.2950    3.9110 os        1 302     -0.213300
     18 C13        -0.9310    2.6130    2.8680 c3        1 302      0.141400
     19 C12        -0.2110    2.2980    1.5650 c3        1 302      0.134400
     20 O11         0.3160    3.5880    1.1160 os        1 302     -0.174300
     21 N10         1.0960    3.5110    0.0660 n2        1 302     -0.400200
     22 C9          1.6130    4.6460   -0.3230 ce        1 302      0.357500
     23 O7          4.1420    7.2380   -3.5530 o         1 302     -0.614500
     24 O8          4.1660    2.6520   -3.8600 o         1 302     -0.642500
     25 H6          2.5530    6.9130   -1.4390 ha        1 302      0.180000
     26 HN2         2.6770    2.6940   -1.8540 hn        1 302      0.367500
     27 HN4         4.7760    5.0050   -4.5250 hn        1 302      0.351500
     28 H27         1.5920    1.7810   10.5400 ha        1 302      0.156000
     29 H26         2.0690    1.7140    8.0750 ha        1 302      0.115500
     30 H29        -2.4940    2.8390    9.7470 ha        1 302      0.156000
     31 H30        -2.0550    2.7820    7.2800 ha        1 302      0.115500
     32 H20         1.4260    1.9260    5.8670 h4        1 302     -0.012200
     33 H131       -1.8430    1.9700    2.9630 h1        1 302      0.063200
     34 H132       -1.2150    3.6960    2.9280 h1        1 302      0.063200
     35 H121       -0.9270    1.9180    0.7940 h1        1 302      0.066200
     36 H122        0.6280    1.5730    1.7240 h1        1 302      0.066200
     37 H9          1.4270    5.6120    0.1900 h4        1 302      0.031800
     38 C35        -0.7550    2.3490   11.7740 c         1 302      0.905200
@<TRIPOS>BOND
     1    1    4 2   
     2    1    5 1   
     3    1   22 1   
     4    2    5 1   
     5    2    6 1   
     6    2   24 2   
     7    3    4 1   
     8    3    6 1   
     9    3   23 2   
    10    4   25 1   
    11    5   26 1   
    12    6   27 1   
    13    7   38 1   
    14    8   38 1   
    15    9   10 ar  
    16    9   12 ar  
    17    9   38 1   
    18   10   11 ar  
    19   10   28 1   
    20   11   14 ar  
    21   11   29 1   
    22   12   13 ar  
    23   12   30 1   
    24   13   14 ar  
    25   13   31 1   
    26   14   15 1   
    27   15   16 2   
    28   15   32 1   
    29   16   17 1   
    30   17   18 1   
    31   18   19 1   
    32   18   33 1   
    33   18   34 1   
    34   19   20 1   
    35   19   35 1   
    36   19   36 1   
    37   20   21 1   
    38   21   22 2   
    39   22   37 1   
@<TRIPOS>SUBSTRUCTURE
     1 302         1 TEMP              0 ****  ****    0 ROOT
