@<TRIPOS>MOLECULE
302
   38    33     1     0     0
SMALL
bcc


@<TRIPOS>ATOM
      1 C1          0.5050    0.5470    4.8280 c1        1 302      0.131000
      2 C3         -1.5200   -0.3640    5.5370 c1        1 302      0.395000
      3 C5          0.4690   -1.2640    6.3230 c1        1 302      0.355000
      4 C6          1.1650   -0.3570    5.5900 c1        1 302     -0.301000
      5 N2         -0.8270    0.5430    4.8020 n2        1 302     -0.303000
      6 N4         -0.8630   -1.2620    6.2930 n2        1 302     -0.365000
      7 O37        -4.2940    0.5900   -5.3350 o         1 302     -0.559000
      8 C35        -3.3370    0.1000   -5.9990 c2        1 302      0.354000
      9 O36        -3.5120   -0.2340   -7.2250 o         1 302     -0.559000
     10 C28        -1.9620   -0.0580   -5.3540 c2        1 302     -0.073000
     11 C27        -1.0440    0.9920   -5.4020 c1        1 302     -0.121000
     12 C26         0.2040    0.8490   -4.8190 c1        1 302     -0.129000
     13 C29        -1.6230   -1.2490   -4.7200 c2        1 302     -0.126000
     14 C30        -0.3790   -1.3920   -4.1380 c1        1 302     -0.111000
     15 C24         0.5400   -0.3440   -4.1860 c1        1 302     -0.136000
     16 C20         1.9610   -0.5450   -3.6280 c2        1 302     -0.032000
     17 N19         2.2100   -0.3150   -2.3440 n1        1 302     -0.129000
     18 O16         1.1960    0.1040   -1.5090 o         1 302     -0.203000
     19 C13         1.5370   -0.1710   -0.1510 c3        1 302     -0.029000
     20 C12         1.0350    0.9920    0.7510 c3        1 302     -0.025000
     21 O11         1.1080    0.6060    2.0960 os        1 302     -0.236000
     22 N10         1.5330    1.6620    2.8560 n2        1 302      0.008000
     23 C9          1.2710    1.6910    4.1800 c2        1 302     -0.142000
     24 O7          1.0600   -2.0760    7.0110 o         1 302     -0.345000
     25 O8         -2.7350   -0.4680    5.3880 o         1 302     -0.360000
     26 H6          2.1320   -0.3580    5.6110 ha        1 302      0.175000
     27 HN2        -1.3020    1.1890    4.2590 hn        1 302      0.287000
     28 HN4        -1.3410   -1.8820    6.7960 hn        1 302      0.265000
     29 H27        -1.2940    1.8720   -5.8710 ha        1 302      0.156000
     30 H26         0.8850    1.5920   -4.8940 ha        1 302      0.105000
     31 H29        -2.2780   -2.0520   -4.7410 ha        1 302      0.156000
     32 H30        -0.1400   -2.2340   -3.6910 ha        1 302      0.126000
     33 H20         2.6900   -0.8460   -4.2280 h4        1 302      0.142000
     34 H131        2.5490   -0.2560   -0.0610 h1        1 302      0.104500
     35 H132        1.1130   -1.0070    0.1280 h1        1 302      0.104500
     36 H121        0.1300    1.2020    0.5260 h1        1 302      0.120500
     37 H122        1.5910    1.7730    0.6110 h1        1 302      0.120500
     38 H9          1.5670    2.4270    4.7100 h4        1 302      0.180000
@<TRIPOS>BOND
     1    1    5 1   
     2    1   23 1   
     3    2    6 1   
     4    2   25 1   
     5    3    4 1   
     6    3   24 1   
     7    4   26 1   
     8    5   27 1   
     9    6   28 1   
    10    7    8 1   
    11    8    9 1   
    12    8   10 1   
    13   10   11 1   
    14   10   13 1   
    15   11   29 1   
    16   12   15 1   
    17   12   30 1   
    18   13   14 1   
    19   13   31 1   
    20   14   32 1   
    21   15   16 1   
    22   16   17 1   
    23   16   33 1   
    24   18   19 1   
    25   19   20 1   
    26   19   34 1   
    27   19   35 1   
    28   20   21 1   
    29   20   36 1   
    30   20   37 1   
    31   21   22 1   
    32   22   23 1   
    33   23   38 1   
@<TRIPOS>SUBSTRUCTURE
     1 302         1 TEMP              0 ****  ****    0 ROOT
