@<TRIPOS>MOLECULE
302
   38    36     1     0     0
SMALL
bcc


@<TRIPOS>ATOM
      1 C1         -1.6320    4.5300   -1.5240 c1        1 302     -0.198900
      2 C3          0.0370   -0.8270   -0.9970 c1        1 302      0.800900
      3 C5         -1.2580    2.2240   -2.3950 ce        1 302      0.487500
      4 C6         -1.1750    3.7300   -2.4470 ce        1 302     -0.094300
      5 N2          0.3400   -0.6950   -2.1800 n2        1 302     -0.849800
      6 N4         -1.5620    1.5410   -1.3180 n2        1 302     -0.704400
      7 O37        -3.6100    3.0520  -10.7030 o         1 302     -0.763800
      8 O36        -1.6610    3.7800   -9.8250 o         1 302     -0.763800
      9 C28        -2.8950    2.1680   -8.6100 ce        1 302      0.071800
     10 C27        -3.5850    0.9670   -8.6840 ce        1 302     -0.243000
     11 C26        -3.7040    0.1480   -7.5680 cf        1 302      0.125000
     12 C29        -2.2770    2.6000   -7.3540 c3        1 302     -0.135000
     13 C30        -2.4300    1.7000   -6.2070 c2        1 302     -0.008200
     14 C24        -3.1180    0.5170   -6.3180 cf        1 302     -0.103700
     15 C20        -3.3550   -0.4340   -5.2550 ch        1 302     -0.290300
     16 N19        -2.7990   -0.4970   -4.0850 n3        1 302     -0.267500
     17 O16        -3.1990   -1.4830   -3.2640 os        1 302     -0.181100
     18 C13        -3.8540   -2.6050   -3.9050 c3        1 302      0.004400
     19 C12        -4.8330   -2.1830   -4.9770 c         1 302      0.626900
     20 O11        -4.9220   -2.7840   -6.0550 o         1 302     -0.612100
     21 N10        -2.4610    6.2070    0.1590 n2        1 302     -0.663800
     22 C9         -2.0720    5.3290   -0.6360 c1        1 302      0.242400
     23 O7         -0.9780    1.6440   -3.5250 o         1 302     -0.897300
     24 O8         -0.0860   -1.1990    0.1460 o         1 302     -0.510500
     25 H6         -0.6870    4.1300   -3.3560 ha        1 302      0.134000
     26 HN2         0.0610    0.0430   -2.7890 hn        1 302      0.543400
     27 HN4        -1.7530    2.1060   -0.5230 hn        1 302      0.359400
     28 H27        -4.2550   -0.8140   -7.6120 ha        1 302      0.187000
     29 H26        -4.0470    0.6880   -9.6480 ha        1 302      0.185000
     30 H29        -2.6530    3.6400   -7.0950 hc        1 302      0.176700
     31 H30        -1.1700    2.7810   -7.5750 hc        1 302      0.176700
     32 H20        -1.9620    2.0120   -5.2450 ha        1 302      0.224000
     33 H131       -2.1130    0.1060   -3.6020 hn        1 302      0.527800
     34 H132       -3.0680   -3.2870   -4.3200 h1        1 302      0.073200
     35 H121       -4.3870   -3.0900   -3.0440 h1        1 302      0.073200
     36 H122       -5.5590   -1.4000   -4.6710 h4        1 302     -0.007800
     37 H9         -2.9090    5.8790    0.9930 hn        1 302      0.399400
     38 C35        -2.7090    3.0870   -9.8350 c         1 302      0.874600
@<TRIPOS>BOND
     1    1    4 2   
     2    1   22 2   
     3    2    5 2   
     4    2   24 2   
     5    3    4 1   
     6    3    6 2   
     7    3   23 1   
     8    4   25 1   
     9    5   26 1   
    10    6   27 1   
    11    7   38 1   
    12    8   38 1   
    13    9   10 1   
    14    9   12 1   
    15    9   38 2   
    16   10   11 2   
    17   10   29 1   
    18   11   14 1   
    19   11   28 1   
    20   12   13 1   
    21   12   30 1   
    22   12   31 1   
    23   13   14 2   
    24   13   32 1   
    25   14   15 1   
    26   15   16 3   
    27   16   17 1   
    28   16   33 1   
    29   17   18 1   
    30   18   19 1   
    31   18   34 1   
    32   18   35 1   
    33   19   20 2   
    34   19   36 1   
    35   21   22 2   
    36   21   37 1   
@<TRIPOS>SUBSTRUCTURE
     1 302         1 TEMP              0 ****  ****    0 ROOT
