@<TRIPOS>MOLECULE
303
   57    60     1     0     0
SMALL
bcc


@<TRIPOS>ATOM
      1 N18         3.9670    1.5710   -0.5570 n2        1 303     -0.659100
      2 C17         3.5270    0.4190   -0.8400 ce        1 303      0.614800
      3 N19         3.2460   -0.6980    0.1650 n4        1 303     -0.884600
      4 C4          3.2050   -0.0210   -2.2240 ca        1 303     -0.180900
      5 C5          2.2950    0.6980   -2.9700 ca        1 303     -0.036000
      6 C6          2.0240    0.3170   -4.3140 ca        1 303     -0.019000
      7 C10         1.0860    1.0310   -5.1110 ca        1 303     -0.080000
      8 C11         0.8400    0.6560   -6.4090 ca        1 303     -0.108000
      9 C12         1.5240   -0.4570   -6.9680 ca        1 303     -0.157600
     10 C13         2.4320   -1.1770   -6.2130 ca        1 303     -0.016000
     11 C1          2.7040   -0.7960   -4.8710 ca        1 303     -0.030000
     12 C2          3.6480   -1.5080   -4.0780 ca        1 303     -0.068000
     13 C3          3.8960   -1.1300   -2.7810 ca        1 303     -0.126000
     14 C20         1.2400   -0.9260   -8.3340 c         1 303      0.568700
     15 O21         1.1030   -2.0820   -8.7070 o         1 303     -0.400100
     16 N22         1.1110    0.1290   -9.4140 n4        1 303     -0.531200
     17 C23         2.3990    0.3870  -10.0690 ca        1 303     -0.085400
     18 C28         2.9600   -0.6040  -10.8940 ca        1 303     -0.098000
     19 C27         4.1710   -0.3660  -11.5480 ca        1 303     -0.035300
     20 C26         4.8010    0.8870  -11.3960 ca        1 303      0.009700
     21 C25         4.2280    1.8610  -10.5660 ca        1 303     -0.117000
     22 C24         3.0350    1.6270   -9.8940 ca        1 303     -0.103000
     23 C32         6.0720    1.2060  -12.0970 c3        1 303     -0.058100
     24 C33         6.3670    0.2250  -13.2300 c3        1 303      0.162800
     25 N34         6.1390   -1.1410  -12.8170 n3        1 303     -0.825200
     26 C35         4.7510   -1.4240  -12.4680 c3        1 303      0.221800
     27 C40         4.6080   -2.8530  -11.8880 c3        1 303     -0.053700
     28 C42         5.0790   -3.8910  -12.8880 c3        1 303     -0.094600
     29 C46         5.3350   -3.0160  -10.5730 c3        1 303     -0.094600
     30 H18         4.1870    1.8890    0.3620 hn        1 303      0.477400
     31 H191        3.6670   -1.5690   -0.1760 hn        1 303      0.464800
     32 H192        3.6200   -0.4930    1.0960 hn        1 303      0.464800
     33 H5          1.7760    1.5780   -2.5540 ha        1 303      0.171000
     34 H10         0.5540    1.8910   -4.6680 ha        1 303      0.171000
     35 H11         0.0850    1.2030   -6.9950 ha        1 303      0.147000
     36 H13         2.9520   -2.0550   -6.6380 ha        1 303      0.177000
     37 H2          4.1830   -2.3640   -4.5240 ha        1 303      0.173000
     38 H3          4.6610   -1.6620   -2.1940 ha        1 303      0.149000
     39 H22         0.4500   -0.2080  -10.1310 hn        1 303      0.464800
     40 H28         2.4420   -1.5690  -11.0270 ha        1 303      0.165000
     41 H25         4.7310    2.8370  -10.4510 ha        1 303      0.170000
     42 H24         2.6080    2.4140   -9.2540 ha        1 303      0.148000
     43 H321        6.9080    1.1790  -11.3450 hc        1 303      0.083200
     44 H322        6.0310    2.2460  -12.5190 hc        1 303      0.083200
     45 H331        7.4520    0.3190  -13.5190 h1        1 303      0.054200
     46 H332        5.7460    0.5150  -14.1280 h1        1 303      0.054200
     47 H34         6.4570   -1.7910  -13.5120 hn        1 303      0.395800
     48 H35         4.0890   -1.3890  -13.3970 h1        1 303      0.041700
     49 H40         3.5080   -3.0310  -11.7210 hc        1 303      0.033700
     50 H421        4.6860   -3.6660  -13.9090 hc        1 303      0.044533
     51 H422        4.7100   -4.9000  -12.5830 hc        1 303      0.044533
     52 H423        6.1940   -3.9360  -12.9330 hc        1 303      0.044533
     53 H461        6.4350   -2.8710  -10.7040 hc        1 303      0.044533
     54 H462        4.9660   -2.2690   -9.8300 hc        1 303      0.044533
     55 H463        5.1610   -4.0430  -10.1680 hc        1 303      0.044533
     56 H193        2.2320   -0.8340    0.2360 hn        1 303      0.464800
     57 H222        0.7570    1.0040   -9.0120 hn        1 303      0.464800
@<TRIPOS>BOND
     1    1    2 2   
     2    1   30 1   
     3    2    3 1   
     4    2    4 1   
     5    3   31 1   
     6    3   32 1   
     7    3   56 1   
     8    4    5 ar  
     9    4   13 ar  
    10    5    6 ar  
    11    5   33 1   
    12    6    7 ar  
    13    6   11 ar  
    14    7    8 ar  
    15    7   34 1   
    16    8    9 ar  
    17    8   35 1   
    18    9   10 ar  
    19    9   14 1   
    20   10   11 ar  
    21   10   36 1   
    22   11   12 ar  
    23   12   13 ar  
    24   12   37 1   
    25   13   38 1   
    26   14   15 2   
    27   14   16 1   
    28   16   17 1   
    29   16   39 1   
    30   16   57 1   
    31   17   18 ar  
    32   17   22 ar  
    33   18   19 ar  
    34   18   40 1   
    35   19   20 ar  
    36   19   26 1   
    37   20   21 ar  
    38   20   23 1   
    39   21   22 ar  
    40   21   41 1   
    41   22   42 1   
    42   23   24 1   
    43   23   43 1   
    44   23   44 1   
    45   24   25 1   
    46   24   45 1   
    47   24   46 1   
    48   25   26 1   
    49   25   47 1   
    50   26   27 1   
    51   26   48 1   
    52   27   28 1   
    53   27   29 1   
    54   27   49 1   
    55   28   50 1   
    56   28   51 1   
    57   28   52 1   
    58   29   53 1   
    59   29   54 1   
    60   29   55 1   
@<TRIPOS>SUBSTRUCTURE
     1 303         1 TEMP              0 ****  ****    0 ROOT
