@<TRIPOS>MOLECULE
303
   56    59     1     0     0
SMALL
bcc


@<TRIPOS>ATOM
      1 N18         0.0210   -1.1910    0.0110 n2        1 303     -0.677100
      2 C17         1.0670   -0.4920   -0.1030 ce        1 303      0.637800
      3 N19         1.6960    0.3500    1.0190 n4        1 303     -0.893600
      4 C4          1.8700   -0.3480   -1.3390 ca        1 303     -0.220900
      5 C5          1.2740    0.1280   -2.4890 ca        1 303     -0.023000
      6 C6          2.0390    0.2600   -3.6790 ca        1 303     -0.044000
      7 C10         1.4640    0.7650   -4.8760 ca        1 303     -0.112000
      8 C11         2.2240    0.8900   -6.0160 ca        1 303     -0.090000
      9 C12         3.5910    0.5180   -6.0050 ca        1 303     -0.106600
     10 C13         4.1760    0.0290   -4.8550 ca        1 303     -0.070000
     11 C1          3.4090   -0.1150   -3.6700 ca        1 303     -0.020000
     12 C2          3.9830   -0.6310   -2.4730 ca        1 303     -0.069000
     13 C3          3.2350   -0.7470   -1.3300 ca        1 303     -0.150000
     14 C20         4.4550    0.6960   -7.2210 c         1 303      0.667700
     15 O21         5.5890    1.1930   -7.1010 o         1 303     -0.570100
     16 N22         3.9050    0.2840   -8.4180 n         1 303     -0.455100
     17 C23         4.5420    0.2860   -9.6780 ca        1 303      0.041600
     18 C28         3.9750   -0.4910  -10.7140 ca        1 303     -0.170000
     19 C27         4.5510   -0.5200  -11.9850 ca        1 303     -0.047300
     20 C26         5.6820    0.2680  -12.2510 ca        1 303     -0.075300
     21 C25         6.2430    1.0340  -11.2270 ca        1 303     -0.107000
     22 C24         5.6950    1.0480   -9.9490 ca        1 303     -0.141000
     23 C32         6.2690    0.3020  -13.6150 c3        1 303     -0.037100
     24 C33         5.2130   -0.0470  -14.6630 c3        1 303      0.174800
     25 N34         4.5370   -1.2880  -14.3650 n3        1 303     -0.829200
     26 C35         3.9010   -1.3690  -13.0550 c3        1 303      0.232800
     27 C40         3.8090   -2.8480  -12.5910 c3        1 303     -0.050700
     28 C42         2.9160   -3.6430  -13.5190 c3        1 303     -0.089100
     29 C46         5.1670   -3.5010  -12.4670 c3        1 303     -0.089100
     30 H18        -0.5200   -1.2680    0.8440 hn        1 303      0.463400
     31 H191        1.2700    0.1830    1.9320 hn        1 303      0.457467
     32 H192        1.5970    1.3400    0.7760 hn        1 303      0.457467
     33 H5          0.2080    0.4060   -2.5100 ha        1 303      0.156000
     34 H10         0.4010    1.0550   -4.8760 ha        1 303      0.151000
     35 H11         1.7760    1.3000   -6.9360 ha        1 303      0.161000
     36 H13         5.2470   -0.2380   -4.8470 ha        1 303      0.173000
     37 H2          5.0420   -0.9420   -2.4870 ha        1 303      0.164000
     38 H3          3.6770   -1.1890   -0.4250 ha        1 303      0.132000
     39 H22         3.0270   -0.1860   -8.3830 hn        1 303      0.317500
     40 H28         3.0630   -1.0800  -10.5260 ha        1 303      0.130000
     41 H25         7.1370    1.6430  -11.4340 ha        1 303      0.142000
     42 H24         6.1700    1.6580   -9.1630 ha        1 303      0.168000
     43 H321        7.1200   -0.4300  -13.6700 hc        1 303      0.063200
     44 H322        6.6810    1.3200  -13.8420 hc        1 303      0.063200
     45 H331        5.7170   -0.1740  -15.6630 h1        1 303      0.033700
     46 H332        4.4980    0.8240  -14.7500 h1        1 303      0.033700
     47 H34         3.8660   -1.5080  -15.0760 hn        1 303      0.373800
     48 H35         2.8270   -0.9950  -13.1240 h1        1 303      0.021700
     49 H40         3.3270   -2.8370  -11.5720 hc        1 303      0.033700
     50 H421        1.9450   -3.1160  -13.6820 hc        1 303      0.038033
     51 H422        2.7040   -4.6460  -13.0730 hc        1 303      0.038033
     52 H423        3.4050   -3.8030  -14.5100 hc        1 303      0.038033
     53 H461        5.8380   -2.8810  -11.8250 hc        1 303      0.038033
     54 H462        5.0620   -4.5130  -12.0060 hc        1 303      0.038033
     55 H463        5.6470   -3.6180  -13.4690 hc        1 303      0.038033
     56 H193        2.6970    0.1300    1.0700 hn        1 303      0.457467
@<TRIPOS>BOND
     1    1    2 2   
     2    1   30 1   
     3    2    3 1   
     4    2    4 1   
     5    3   31 1   
     6    3   32 1   
     7    3   56 1   
     8    4    5 ar  
     9    4   13 ar  
    10    5    6 ar  
    11    5   33 1   
    12    6    7 ar  
    13    6   11 ar  
    14    7    8 ar  
    15    7   34 1   
    16    8    9 ar  
    17    8   35 1   
    18    9   10 ar  
    19    9   14 1   
    20   10   11 ar  
    21   10   36 1   
    22   11   12 ar  
    23   12   13 ar  
    24   12   37 1   
    25   13   38 1   
    26   14   15 2   
    27   14   16 1   
    28   16   17 1   
    29   16   39 1   
    30   17   18 ar  
    31   17   22 ar  
    32   18   19 ar  
    33   18   40 1   
    34   19   20 ar  
    35   19   26 1   
    36   20   21 ar  
    37   20   23 1   
    38   21   22 ar  
    39   21   41 1   
    40   22   42 1   
    41   23   24 1   
    42   23   43 1   
    43   23   44 1   
    44   24   25 1   
    45   24   45 1   
    46   24   46 1   
    47   25   26 1   
    48   25   47 1   
    49   26   27 1   
    50   26   48 1   
    51   27   28 1   
    52   27   29 1   
    53   27   49 1   
    54   28   50 1   
    55   28   51 1   
    56   28   52 1   
    57   29   53 1   
    58   29   54 1   
    59   29   55 1   
@<TRIPOS>SUBSTRUCTURE
     1 303         1 TEMP              0 ****  ****    0 ROOT
