@<TRIPOS>MOLECULE
303
   55    58     1     0     0
SMALL
bcc


@<TRIPOS>ATOM
      1 N18         2.4010    0.0350   -7.9840 n2        1 303     -0.827100
      2 C17         1.1090   -0.0430   -7.8700 ce        1 303      0.652800
      3 N19         0.1510    0.0440   -8.8990 nh        1 303     -0.961800
      4 C4          0.5250   -0.1540   -6.4930 ca        1 303     -0.125900
      5 C5          0.8660    0.7560   -5.5190 ca        1 303     -0.070000
      6 C6          0.3100    0.6490   -4.2140 ca        1 303     -0.029000
      7 C10         0.6340    1.5800   -3.1900 ca        1 303     -0.112000
      8 C11         0.0940    1.4560   -1.9340 ca        1 303     -0.115000
      9 C12        -0.8010    0.3940   -1.6450 ca        1 303     -0.144600
     10 C13        -1.1470   -0.5130   -2.6240 ca        1 303     -0.058000
     11 C1         -0.5920   -0.4070   -3.9280 ca        1 303     -0.042000
     12 C2         -0.9180   -1.3380   -4.9530 ca        1 303     -0.109000
     13 C3         -0.3740   -1.2140   -6.2070 ca        1 303     -0.122000
     14 C20        -1.4170    0.2510   -0.2900 c         1 303      0.679700
     15 O21        -2.6230   -0.0260   -0.1610 o         1 303     -0.584100
     16 N22        -0.5550    0.4330    0.7830 n         1 303     -0.467100
     17 C23        -0.8630    0.3300    2.1510 ca        1 303      0.066600
     18 C28         0.2050    0.3610    3.0790 ca        1 303     -0.181000
     19 C27        -0.0330    0.2720    4.4510 ca        1 303     -0.050300
     20 C26        -1.3510    0.1900    4.9240 ca        1 303     -0.094300
     21 C25        -2.4060    0.1560    4.0100 ca        1 303     -0.105000
     22 C24        -2.1810    0.2180    2.6400 ca        1 303     -0.151000
     23 C32        -1.6180    0.1590    6.3840 c3        1 303     -0.032100
     24 C33        -0.4960    0.8650    7.1440 c3        1 303      0.176800
     25 N34         0.8100    0.3460    6.8110 n3        1 303     -0.829200
     26 C35         1.1490    0.3070    5.3930 c3        1 303      0.232800
     27 C40         2.1010   -0.8830    5.0940 c3        1 303     -0.051700
     28 C42         3.4300   -0.6910    5.7930 c3        1 303     -0.087100
     29 C46         1.4920   -2.2170    5.4620 c3        1 303     -0.087100
     30 H18         2.7630    0.1070   -8.9110 hn        1 303      0.384400
     31 H191        0.4450   -0.2000   -9.8160 hn        1 303      0.402300
     32 H192       -0.7700   -0.2430   -8.6660 hn        1 303      0.402300
     33 H5          1.5750    1.5720   -5.7310 ha        1 303      0.155000
     34 H10         1.3260    2.4030   -3.4250 ha        1 303      0.142000
     35 H11         0.3360    2.1940   -1.1530 ha        1 303      0.139000
     36 H13        -1.8620   -1.3220   -2.4060 ha        1 303      0.156000
     37 H2         -1.6140   -2.1580   -4.7180 ha        1 303      0.141000
     38 H3         -0.6180   -1.9460   -6.9920 ha        1 303      0.133000
     39 H22         0.4070    0.5790    0.5690 hn        1 303      0.319500
     40 H28         1.2430    0.4620    2.7230 ha        1 303      0.129000
     41 H25        -3.4410    0.0820    4.3800 ha        1 303      0.135000
     42 H24        -3.0390    0.1820    1.9480 ha        1 303      0.173000
     43 H321       -1.6990   -0.9090    6.7250 hc        1 303      0.057700
     44 H322       -2.5890    0.6670    6.6210 hc        1 303      0.057700
     45 H331       -0.6430    0.7050    8.2490 h1        1 303      0.028700
     46 H332       -0.5810    1.9750    6.9470 h1        1 303      0.028700
     47 H34         1.5240    0.8420    7.3100 hn        1 303      0.367800
     48 H35         1.7300    1.2470    5.1150 h1        1 303      0.021700
     49 H40         2.2870   -0.8730    3.9820 hc        1 303      0.040700
     50 H421        4.1580   -1.4630    5.4430 hc        1 303      0.035867
     51 H422        3.8520    0.3190    5.5690 hc        1 303      0.035867
     52 H423        3.3220   -0.7930    6.8990 hc        1 303      0.035867
     53 H461        1.3920   -2.3200    6.5700 hc        1 303      0.035867
     54 H462        0.4780   -2.3170    5.0050 hc        1 303      0.035867
     55 H463        2.1390   -3.0470    5.0880 hc        1 303      0.035867
@<TRIPOS>BOND
     1    1    2 2   
     2    1   30 1   
     3    2    3 1   
     4    2    4 1   
     5    3   31 1   
     6    3   32 1   
     7    4    5 ar  
     8    4   13 ar  
     9    5    6 ar  
    10    5   33 1   
    11    6    7 ar  
    12    6   11 ar  
    13    7    8 ar  
    14    7   34 1   
    15    8    9 ar  
    16    8   35 1   
    17    9   10 ar  
    18    9   14 1   
    19   10   11 ar  
    20   10   36 1   
    21   11   12 ar  
    22   12   13 ar  
    23   12   37 1   
    24   13   38 1   
    25   14   15 2   
    26   14   16 1   
    27   16   17 1   
    28   16   39 1   
    29   17   18 ar  
    30   17   22 ar  
    31   18   19 ar  
    32   18   40 1   
    33   19   20 ar  
    34   19   26 1   
    35   20   21 ar  
    36   20   23 1   
    37   21   22 ar  
    38   21   41 1   
    39   22   42 1   
    40   23   24 1   
    41   23   43 1   
    42   23   44 1   
    43   24   25 1   
    44   24   45 1   
    45   24   46 1   
    46   25   26 1   
    47   25   47 1   
    48   26   27 1   
    49   26   48 1   
    50   27   28 1   
    51   27   29 1   
    52   27   49 1   
    53   28   50 1   
    54   28   51 1   
    55   28   52 1   
    56   29   53 1   
    57   29   54 1   
    58   29   55 1   
@<TRIPOS>SUBSTRUCTURE
     1 303         1 TEMP              0 ****  ****    0 ROOT
