@<TRIPOS>MOLECULE
303
   56    59     1     0     0
SMALL
bcc


@<TRIPOS>ATOM
      1 N18        -0.0030   -1.1470    0.0050 n2        1 303     -0.677100
      2 C17         1.0540   -0.4630   -0.1070 ce        1 303      0.637800
      3 N19         1.6930    0.3690    1.0170 nz        1 303     -0.893600
      4 C4          1.8600   -0.3290   -1.3420 ca        1 303     -0.220900
      5 C5          1.2730    0.1570   -2.4920 ca        1 303     -0.023000
      6 C6          2.0420    0.2800   -3.6810 ca        1 303     -0.044000
      7 C10         1.4750    0.7940   -4.8780 ca        1 303     -0.112000
      8 C11         2.2390    0.9100   -6.0160 ca        1 303     -0.090000
      9 C12         3.6010    0.5190   -6.0040 ca        1 303     -0.106600
     10 C13         4.1770    0.0210   -4.8530 ca        1 303     -0.070000
     11 C1          3.4060   -0.1140   -3.6700 ca        1 303     -0.020000
     12 C2          3.9710   -0.6390   -2.4720 ca        1 303     -0.069000
     13 C3          3.2200   -0.7460   -1.3310 ca        1 303     -0.150000
     14 C20         4.4690    0.6870   -7.2180 c         1 303      0.667700
     15 O21         5.6100    1.1690   -7.0950 o         1 303     -0.570100
     16 N22         3.9160    0.2840   -8.4170 ns        1 303     -0.455100
     17 C23         4.5560    0.2800   -9.6750 ca        1 303      0.041600
     18 C28         3.9810   -0.4880  -10.7130 ca        1 303     -0.170000
     19 C27         4.5590   -0.5220  -11.9830 ca        1 303     -0.047300
     20 C26         5.6990    0.2530  -12.2470 ca        1 303     -0.075300
     21 C25         6.2680    1.0100  -11.2200 ca        1 303     -0.107000
     22 C24         5.7180    1.0290   -9.9430 ca        1 303     -0.141000
     23 C32         6.2900    0.2810  -13.6090 c3        1 303     -0.037100
     24 C33         5.2320   -0.0540  -14.6600 c3        1 303      0.174800
     25 N34         4.5410   -1.2870  -14.3650 n7        1 303     -0.829200
     26 C35         3.9010   -1.3620  -13.0560 c3        1 303      0.232800
     27 C40         3.7890   -2.8400  -12.5940 c3        1 303     -0.050700
     28 C42         2.8890   -3.6230  -13.5260 c3        1 303     -0.089100
     29 C46         5.1380   -3.5100  -12.4670 c3        1 303     -0.089100
     30 H18        -0.5460   -1.2170    0.8370 hn        1 303      0.463400
     31 H191        1.6070    1.3610    0.7750 hn        1 303      0.457467
     32 H192        2.6900    0.1350    1.0690 hn        1 303      0.457467
     33 H5          0.2110    0.4490   -2.5140 ha        1 303      0.156000
     34 H10         0.4170    1.0980   -4.8800 ha        1 303      0.151000
     35 H11         1.7980    1.3270   -6.9370 ha        1 303      0.161000
     36 H13         5.2440   -0.2610   -4.8440 ha        1 303      0.173000
     37 H2          5.0250   -0.9650   -2.4850 ha        1 303      0.164000
     38 H3          3.6540   -1.1950   -0.4260 ha        1 303      0.132000
     39 H22         3.0320   -0.1740   -8.3840 hn        1 303      0.317500
     40 H28         3.0620   -1.0670  -10.5280 ha        1 303      0.130000
     41 H25         7.1700    1.6090  -11.4250 ha        1 303      0.142000
     42 H24         6.1990    1.6320   -9.1560 ha        1 303      0.168000
     43 H321        7.1330   -0.4600  -13.6630 hc        1 303      0.063200
     44 H322        6.7130    1.2950  -13.8350 hc        1 303      0.063200
     45 H331        4.5270    0.8260  -14.7470 h1        1 303      0.033700
     46 H332        5.7360   -0.1860  -15.6590 h1        1 303      0.033700
     47 H34         3.8700   -1.4990  -15.0770 hn        1 303      0.373800
     48 H35         2.8320   -0.9740  -13.1270 h1        1 303      0.021700
     49 H40         3.3040   -2.8240  -11.5770 hc        1 303      0.033700
     50 H421        1.9260   -3.0830  -13.6920 hc        1 303      0.038033
     51 H422        3.3800   -3.7880  -14.5150 hc        1 303      0.038033
     52 H423        2.6620   -4.6230  -13.0820 hc        1 303      0.038033
     53 H461        5.6200   -3.6310  -13.4670 hc        1 303      0.038033
     54 H462        5.8140   -2.8990  -11.8210 hc        1 303      0.038033
     55 H463        5.0190   -4.5210  -12.0080 hc        1 303      0.038033
     56 H193        1.2620    0.2070    1.9290 hn        1 303      0.457467
@<TRIPOS>BOND
     1    1    2 2   
     2    1   30 1   
     3    2    3 1   
     4    2    4 1   
     5    3   31 1   
     6    3   32 1   
     7    3   56 1   
     8    4    5 ar  
     9    4   13 ar  
    10    5    6 ar  
    11    5   33 1   
    12    6    7 ar  
    13    6   11 ar  
    14    7    8 ar  
    15    7   34 1   
    16    8    9 ar  
    17    8   35 1   
    18    9   10 ar  
    19    9   14 1   
    20   10   11 ar  
    21   10   36 1   
    22   11   12 ar  
    23   12   13 ar  
    24   12   37 1   
    25   13   38 1   
    26   14   15 2   
    27   14   16 1   
    28   16   17 1   
    29   16   39 1   
    30   17   18 ar  
    31   17   22 ar  
    32   18   19 ar  
    33   18   40 1   
    34   19   20 ar  
    35   19   26 1   
    36   20   21 ar  
    37   20   23 1   
    38   21   22 ar  
    39   21   41 1   
    40   22   42 1   
    41   23   24 1   
    42   23   43 1   
    43   23   44 1   
    44   24   25 1   
    45   24   45 1   
    46   24   46 1   
    47   25   26 1   
    48   25   47 1   
    49   26   27 1   
    50   26   48 1   
    51   27   28 1   
    52   27   29 1   
    53   27   49 1   
    54   28   50 1   
    55   28   51 1   
    56   28   52 1   
    57   29   53 1   
    58   29   54 1   
    59   29   55 1   
@<TRIPOS>SUBSTRUCTURE
     1 303         1 TEMP              0 ****  ****    0 ROOT
