@<TRIPOS>MOLECULE
303
   55    51     1     0     0
SMALL
bcc


@<TRIPOS>ATOM
      1 N18        -3.4200    2.9650    8.4140 n1        1 303     -0.293000
      2 C17        -4.1240    2.7760    7.2930 c1        1 303      0.128000
      3 N19        -5.5100    2.5880    7.3570 n2        1 303     -0.399000
      4 C4         -3.4110    2.7720    5.9280 c2        1 303     -0.042000
      5 C5         -2.7340    1.5870    5.7020 c1        1 303     -0.070000
      6 C6         -1.8790    1.4530    4.5520 c1        1 303     -0.029000
      7 C10        -1.3020    0.2130    4.2620 c2        1 303     -0.113000
      8 C11        -0.5660    0.0340    3.0620 c1        1 303     -0.115000
      9 C12        -0.4190    1.0800    2.1840 c1        1 303     -0.124000
     10 C13        -0.9960    2.3260    2.4700 c1        1 303     -0.058000
     11 C1         -1.7330    2.5070    3.6700 c1        1 303     -0.043000
     12 C2         -2.4250    3.7230    3.8980 c2        1 303     -0.109000
     13 C3         -3.2640    3.8550    5.0260 c2        1 303     -0.123000
     14 C20         0.2250    1.1300    0.7770 c2        1 303      0.353000
     15 O21         0.2520    2.1550    0.1710 o         1 303     -0.345000
     16 N22         0.8410   -0.0610    0.2160 n         1 303     -0.322000
     17 C23         1.4910   -0.0010   -1.0880 c2        1 303      0.074000
     18 C28         1.0480   -0.8350   -2.1270 c2        1 303     -0.181000
     19 C27         1.7530   -0.9070   -3.2870 c1        1 303     -0.043000
     20 C26         2.9760   -0.1130   -3.4540 c1        1 303     -0.086000
     21 C25         3.4040    0.6930   -2.4510 c1        1 303     -0.105000
     22 C24         2.6790    0.7690   -1.2510 c1        1 303     -0.150000
     23 C32         3.6680   -0.1710   -4.8000 c3        1 303     -0.118000
     24 C33         2.9880   -0.9140   -5.8440 c3        1 303     -0.061000
     25 N34         2.2630   -2.0520   -5.4420 n3        1 303     -0.308000
     26 C35         1.3620   -1.9060   -4.4610 c3        1 303      0.028000
     27 C40         1.0810   -3.3670   -3.8070 c3        1 303     -0.091000
     28 C42        -0.3280   -3.8010   -4.1240 c3        1 303     -0.205000
     29 C46         2.0270   -4.3550   -4.3680 c3        1 303     -0.205000
     30 H18        -3.8680    2.9700    9.2710 DU        1 303      0.140000
     31 H191       -5.8930    2.2090    8.1080 hn        1 303      0.196500
     32 H192       -6.0330    2.8040    6.6370 hn        1 303      0.196500
     33 H5         -2.8000    0.8200    6.3830 ha        1 303      0.155000
     34 H10        -1.4050   -0.5340    4.8870 ha        1 303      0.142000
     35 H11        -0.1590   -0.8410    2.8590 ha        1 303      0.140000
     36 H13        -0.8950    3.0620    1.8470 ha        1 303      0.156000
     37 H2         -2.3110    4.5140    3.2430 ha        1 303      0.141000
     38 H3         -3.6980    4.7190    5.2190 ha        1 303      0.133000
     39 H22         0.8990   -0.8250    0.7200 hn        1 303      0.232000
     40 H28         0.2910   -1.4510   -1.9750 ha        1 303      0.129000
     41 H25         4.2180    1.2190   -2.5640 ha        1 303      0.135000
     42 H24         3.0420    1.2520   -0.5040 ha        1 303      0.172000
     43 H321        4.5000   -0.5480   -4.6770 hc        1 303      0.097000
     44 H322        3.7950    0.7660   -5.1190 hc        1 303      0.097000
     45 H331        3.6980   -1.2160   -6.5390 h1        1 303      0.068000
     46 H332        2.3000   -0.2380   -6.3360 h1        1 303      0.068000
     47 H34         1.8590   -2.4550   -6.1920 hn        1 303      0.163000
     48 H35         0.5230   -1.5850   -4.8660 h1        1 303      0.062000
     49 H40         1.2030   -3.3160   -2.7930 hc        1 303      0.079000
     50 H421       -0.9060   -3.0340   -4.1390 hc        1 303      0.075167
     51 H422       -0.6420   -4.4400   -3.4300 hc        1 303      0.075167
     52 H423       -0.3440   -4.2390   -5.0040 hc        1 303      0.075167
     53 H461        1.9030   -4.4070   -5.3870 hc        1 303      0.075167
     54 H462        2.9370   -4.0850   -4.1650 hc        1 303      0.075167
     55 H463        1.8440   -5.2650   -3.9590 hc        1 303      0.075167
@<TRIPOS>BOND
     1    1    2 1   
     2    2    4 1   
     3    3   31 1   
     4    3   32 1   
     5    4    5 1   
     6    4   13 1   
     7    5   33 1   
     8    6    7 1   
     9    6   11 1   
    10    7    8 1   
    11    7   34 1   
    12    8   35 1   
    13    9   10 1   
    14    9   14 1   
    15   10   36 1   
    16   11   12 1   
    17   12   13 1   
    18   12   37 1   
    19   13   38 1   
    20   14   15 1   
    21   14   16 1   
    22   16   17 1   
    23   16   39 1   
    24   17   18 1   
    25   17   22 1   
    26   18   19 1   
    27   18   40 1   
    28   19   26 1   
    29   20   21 1   
    30   20   23 1   
    31   21   41 1   
    32   22   42 1   
    33   23   24 1   
    34   23   43 1   
    35   23   44 1   
    36   24   25 1   
    37   24   45 1   
    38   24   46 1   
    39   25   26 1   
    40   25   47 1   
    41   26   27 1   
    42   26   48 1   
    43   27   28 1   
    44   27   29 1   
    45   27   49 1   
    46   28   50 1   
    47   28   51 1   
    48   28   52 1   
    49   29   53 1   
    50   29   54 1   
    51   29   55 1   
@<TRIPOS>SUBSTRUCTURE
     1 303         1 TEMP              0 ****  ****    0 ROOT
