@<TRIPOS>MOLECULE
304
   49    49     1     0     0
SMALL
bcc


@<TRIPOS>ATOM
      1 C1         -0.5850   -0.6290    0.4820 c3        1 304     -0.071000
      2 C2          0.3510    0.0450    1.3140 c1        1 304     -0.036000
      3 C3         -1.8410    1.3770    0.9660 c1        1 304      0.467000
      4 C4          3.6940   -1.0980    6.4500 c2        1 304     -0.044000
      5 C5         -1.8390    0.1970    0.3210 c2        1 304     -0.518000
      6 C6          1.6550   -0.0080    1.7650 c2        1 304      0.064000
      7 C7          2.0310   -0.5860    2.9480 c2        1 304     -0.362000
      8 C8          4.0000    0.1410    5.8350 c2        1 304     -0.562000
      9 C9          4.8710   -0.1150    8.0590 c2        1 304     -0.382000
     10 C10        -2.8960   -0.4300   -0.4570 c2        1 304      0.328000
     11 C11         3.5690    0.5660    4.5150 c2        1 304      0.335000
     12 C12         2.6110    0.7660    0.9050 c3        1 304     -0.223000
     13 C14         5.5600    2.4540    9.7210 c3        1 304     -0.257000
     14 C15        -4.7860    1.1350    0.0330 c3        1 304     -0.202000
     15 C16         5.4690    0.9010   11.6800 c3        1 304     -0.193000
     16 C17         5.0330    1.1230   10.2260 c3        1 304     -0.065000
     17 N18         4.1840   -1.2500    7.7050 n2        1 304     -0.044000
     18 N19         3.3780   -0.5280    3.4770 n4        1 304     -0.008000
     19 N20         5.5220   -0.0360    9.3600 n4        1 304      0.022000
     20 N21        -3.9830    0.4640   -1.0160 n4        1 304     -0.104000
     21 O22        -2.9990   -1.6160   -0.7340 o         1 304     -0.148000
     22 O23         3.3820    1.7120    4.1310 o         1 304     -0.152000
     23 S24         4.8840    1.0950    6.8780 ss        1 304      0.924000
     24 H1         -0.1420   -0.8700   -0.5360 hc        1 304      0.200000
     25 H2         -0.8500   -1.6410    0.9350 hc        1 304      0.200000
     26 H3          1.3270   -1.1250    3.6040 hx        1 304      0.197000
     27 H4          3.0910   -1.9220    6.0320 h4        1 304      0.220000
     28 H12         3.4200    0.0870    0.5340 hc        1 304      0.136667
     29 H12A        3.0560    1.6080    1.4980 hc        1 304      0.136667
     30 H12B        2.1070    1.2170    0.0120 hc        1 304      0.136667
     31 H13         5.4200   -1.2700   11.9480 hc        1 304      0.106333
     32 H13A        3.8020   -0.4450   12.0780 hc        1 304      0.106333
     33 H13B        5.0160   -0.3000   13.4090 hc        1 304      0.106333
     34 H14B        5.0980    3.2710   10.3380 hc        1 304      0.122667
     35 H15        -4.1320    1.8090    0.6510 hx        1 304      0.161333
     36 H15A       -5.5890    1.7560   -0.4580 hx        1 304      0.161333
     37 H15B       -5.2710    0.3610    0.6900 hx        1 304      0.161333
     38 H16         3.9030    1.0940   10.1690 hx        1 304      0.157000
     39 H16A        5.1030    1.8000   12.2530 hc        1 304      0.141500
     40 H17         6.5890    0.9000   11.7600 hc        1 304      0.141500
     41 HN19        4.0440   -0.3420    2.7090 hn        1 304      0.263000
     42 HN20        6.5390    0.0500    9.2170 hn        1 304      0.280500
     43 HN21       -3.5560    1.1690   -1.6320 hn        1 304      0.276500
     44 H14         5.2800    2.6400    8.6520 hc        1 304      0.122667
     45 C13         4.8940   -0.3470   12.2940 c3        1 304     -0.248000
     46 H192        3.6020   -1.4450    3.8850 hn        1 304      0.263000
     47 H202        5.3460   -0.9130    9.8900 hn        1 304      0.280500
     48 H212       -4.6110   -0.1240   -1.5940 hn        1 304      0.276500
     49 H14A        6.6700    2.5320    9.8310 hc        1 304      0.122667
@<TRIPOS>BOND
     1    1    2 1   
     2    1    5 1   
     3    1   24 1   
     4    1   25 1   
     5    2    6 1   
     6    3    5 1   
     7    4    8 1   
     8    4   17 1   
     9    4   27 1   
    10    5   10 1   
    11    6    7 1   
    12    6   12 1   
    13    7   18 1   
    14    7   26 1   
    15    8   11 1   
    16    8   23 1   
    17    9   17 1   
    18    9   19 1   
    19    9   23 1   
    20   10   20 1   
    21   10   21 1   
    22   11   18 1   
    23   11   22 1   
    24   12   28 1   
    25   12   29 1   
    26   12   30 1   
    27   13   16 1   
    28   13   34 1   
    29   13   44 1   
    30   13   49 1   
    31   14   20 1   
    32   14   35 1   
    33   14   36 1   
    34   14   37 1   
    35   15   16 1   
    36   15   39 1   
    37   15   40 1   
    38   15   45 1   
    39   16   19 1   
    40   16   38 1   
    41   18   41 1   
    42   18   46 1   
    43   19   42 1   
    44   19   47 1   
    45   20   43 1   
    46   20   48 1   
    47   31   45 1   
    48   32   45 1   
    49   33   45 1   
@<TRIPOS>SUBSTRUCTURE
     1 304         1 TEMP              0 ****  ****    0 ROOT
