@<TRIPOS>MOLECULE
304
   46    47     1     0     0
SMALL
bcc


@<TRIPOS>ATOM
      1 C1         -4.9710   -1.4340    0.3240 ca        1 304     -0.129000
      2 C2         -4.0670   -2.4810    0.1800 ca        1 304     -0.115000
      3 C3         -3.1270    0.1420    0.3380 ca        1 304     -0.096000
      4 C4          1.9990    1.6030   -0.7270 cc        1 304      0.458200
      5 C5         -4.4940   -0.1240    0.4020 ca        1 304     -0.120600
      6 C6         -2.6920   -2.2480    0.0970 ca        1 304     -0.110300
      7 C7         -2.2050   -0.9150    0.1750 ca        1 304      0.066600
      8 C8          1.2570    0.5100   -0.2800 cd        1 304     -0.309000
      9 C9          3.6900    0.2710   -0.1380 cd        1 304      0.690300
     10 C10        -5.4310    1.0250    0.5880 c         1 304      0.671700
     11 C11        -0.2090    0.4980   -0.3020 c         1 304      0.728700
     12 C12        -1.7720   -3.4000   -0.0640 c3        1 304     -0.056800
     13 C14         6.4230    0.4310   -1.7410 c3        1 304     -0.127100
     14 C15        -7.4630    2.1480   -0.2400 c3        1 304      0.078300
     15 C16         7.3820    0.1040    0.5340 c3        1 304     -0.083400
     16 C17         6.1360    0.5580   -0.2440 c3        1 304      0.201500
     17 N18         3.3640    1.4790   -0.6650 nc        1 304     -0.715000
     18 N19        -0.8210   -0.6790    0.1260 n         1 304     -0.477100
     19 N20         4.9540   -0.1730    0.1950 nh        1 304     -0.808900
     20 N21        -6.5340    1.0640   -0.2440 n         1 304     -0.573900
     21 O22        -5.2420    1.8960    1.4600 o         1 304     -0.595100
     22 O23        -0.8600    1.4900   -0.6830 o         1 304     -0.584100
     23 S24         2.2900   -0.7120    0.2650 ss        1 304     -0.175300
     24 H1         -6.0490   -1.6440    0.3930 ha        1 304      0.139000
     25 H2         -4.4410   -3.5150    0.1280 ha        1 304      0.135000
     26 H3         -2.7790    1.1870    0.4160 ha        1 304      0.185000
     27 H4          1.5610    2.5310   -1.1250 h4        1 304      0.068100
     28 H12        -1.1350   -3.2750   -0.9750 hc        1 304      0.044700
     29 H12A       -1.1030   -3.5000    0.8280 hc        1 304      0.044700
     30 H12B       -2.3420   -4.3560   -0.1720 hc        1 304      0.044700
     31 H13         6.4870   -0.1750    2.4960 hc        1 304      0.039367
     32 H13A        8.2640    0.1710    2.5050 hc        1 304      0.039367
     33 H13B        7.0800    1.5010    2.1650 hc        1 304      0.039367
     34 H14A        6.6690   -0.6230   -2.0140 hc        1 304      0.047033
     35 H14B        5.5460    0.7650   -2.3450 hc        1 304      0.047033
     36 H15        -7.3040    2.7890    0.6680 h1        1 304      0.043700
     37 H15A       -7.3380    2.7840   -1.1590 h1        1 304      0.043700
     38 H15B       -8.5110    1.7440   -0.2270 h1        1 304      0.043700
     39 H16         8.2620    0.6400    0.0890 hc        1 304      0.045700
     40 H16A        7.5510   -0.9940    0.3840 hc        1 304      0.045700
     41 H17         5.9540    1.6510   -0.0080 h1        1 304      0.090700
     42 HN19       -0.2380   -1.4640    0.3150 hn        1 304      0.316500
     43 HN20        5.0570   -1.1670    0.1780 hn        1 304      0.414800
     44 HN21       -6.5920    0.4110   -0.9880 hn        1 304      0.310500
     45 H14         7.2950    1.0770   -2.0020 hc        1 304      0.047033
     46 C13         7.2950    0.4170    2.0040 c3        1 304     -0.093100
@<TRIPOS>BOND
     1    1    2 ar  
     2    1    5 ar  
     3    1   24 1   
     4    2    6 ar  
     5    2   25 1   
     6    3    5 ar  
     7    3    7 ar  
     8    3   26 1   
     9    4    8 2   
    10    4   17 1   
    11    4   27 1   
    12    5   10 1   
    13    6    7 ar  
    14    6   12 1   
    15    7   18 1   
    16    8   11 1   
    17    8   23 1   
    18    9   17 2   
    19    9   19 1   
    20    9   23 1   
    21   10   20 1   
    22   10   21 2   
    23   11   18 1   
    24   11   22 2   
    25   12   28 1   
    26   12   29 1   
    27   12   30 1   
    28   13   16 1   
    29   13   34 1   
    30   13   35 1   
    31   13   45 1   
    32   14   20 1   
    33   14   36 1   
    34   14   37 1   
    35   14   38 1   
    36   15   16 1   
    37   15   39 1   
    38   15   40 1   
    39   15   46 1   
    40   16   19 1   
    41   16   41 1   
    42   18   42 1   
    43   19   43 1   
    44   20   44 1   
    45   31   46 1   
    46   32   46 1   
    47   33   46 1   
@<TRIPOS>SUBSTRUCTURE
     1 304         1 TEMP              0 ****  ****    0 ROOT
