@<TRIPOS>MOLECULE
304
   47    45     1     0     0
SMALL
bcc


@<TRIPOS>ATOM
      1 C1          0.2670   -0.7450   -0.8420 c3        1 304      0.043000
      2 C2          1.4180   -0.7730   -1.6920 c1        1 304     -0.241000
      3 C3          1.2180   -0.6880    1.4740 c2        1 304      0.140000
      4 C4          1.2830    0.2750    7.4730 c2        1 304      0.074000
      5 C5          0.5230   -0.0110    0.4470 c2        1 304     -0.305000
      6 C6          2.3600   -0.8090   -2.4310 c1        1 304     -0.088000
      7 C7          1.6630   -0.1950    2.6180 c1        1 304     -0.085000
      8 C8          1.9360    0.3250    6.2170 c2        1 304     -0.590000
      9 C9          3.3490    0.7610    8.1820 c2        1 304      0.001000
     10 C10         0.0760    1.2570    0.5430 c1        1 304      0.408000
     11 C11         1.2300    0.0830    5.0030 c2        1 304      0.398000
     12 C12         3.4740   -0.8570   -3.3200 c3        1 304     -0.128000
     13 C14         3.8330    2.5190   10.8920 c3        1 304     -0.238000
     14 C15        -2.8940    1.3080    2.2610 c3        1 304     -0.149000
     15 C16         5.5540    0.7200   11.1750 c3        1 304     -0.265000
     16 C17         4.2430    1.1110   10.4650 c3        1 304     -0.017000
     17 N18         2.0430    0.5180    8.5600 n2        1 304     -0.192000
     18 N19         2.0450    0.1840    3.7660 n         1 304     -0.071000
     19 N20         4.3880    0.9760    9.0180 nh        1 304     -0.247000
     20 N21        -1.5950    0.9140    2.7390 n3        1 304     -0.381000
     21 O22        -0.3060    2.3670    0.5480 o         1 304     -0.030000
     22 O23         0.0360   -0.1900    4.8630 o         1 304     -0.263000
     23 S24         3.5780    0.6880    6.4390 ss        1 304      0.410000
     24 H1         -0.5930   -0.2640   -1.3910 hc        1 304      0.119000
     25 H2         -0.0520   -1.7990   -0.5960 hc        1 304      0.119000
     26 H3          1.4730   -1.7580    1.2720 ha        1 304      0.219000
     27 H4          0.2090    0.0550    7.6010 h4        1 304      0.213000
     28 H12         4.2450   -0.0970   -3.0280 hc        1 304      0.108667
     29 H12A        3.1440   -0.6410   -4.3710 hc        1 304      0.108667
     30 H12B        3.9500   -1.8730   -3.3010 hc        1 304      0.108667
     31 H13         5.4210   -1.3400   10.4560 ha        1 304      0.047000
     32 H13A        4.9200   -1.5460   12.8060 ha        1 304      0.012000
     33 H13B        5.4150    0.9160   12.2800 hc        1 304      0.161500
     34 H14B        3.6820    2.5270   11.9990 hc        1 304      0.096333
     35 H15        -3.6870    1.3270    3.0580 h1        1 304      0.079667
     36 H15A       -3.2260    0.5980    1.4590 h1        1 304      0.079667
     37 H15B       -2.8180    2.3380    1.8190 h1        1 304      0.079667
     38 H16         3.4360    0.3880   10.7940 h1        1 304      0.135000
     39 H16A        6.3960    1.4010   10.8540 hc        1 304      0.161500
     40 H17         5.5630   -1.7010   12.9720 ha        1 304      0.012000
     41 HN19        2.9700    0.5790    3.8720 hn        1 304      0.264000
     42 HN20        5.2520    1.2770    8.6210 hn        1 304      0.248000
     43 HN21       -1.6110   -0.0370    3.0620 hn        1 304      0.148000
     44 H14         2.8760    2.8220   10.4050 hc        1 304      0.096333
     45 C13         6.0290   -0.6390   11.0470 c1        1 304     -0.046000
     46 H212       -1.3210    1.4900    3.5130 hn        1 304      0.148000
     47 H14A        4.6230    3.2650   10.6360 hc        1 304      0.096333
@<TRIPOS>BOND
     1    1    2 1   
     2    1    5 1   
     3    1   24 1   
     4    1   25 1   
     5    2    6 1   
     6    3    5 1   
     7    3    7 1   
     8    3   26 1   
     9    4    8 1   
    10    4   17 1   
    11    4   27 1   
    12    5   10 1   
    13    6   12 1   
    14    7   18 1   
    15    8   11 1   
    16    8   23 1   
    17    9   17 1   
    18    9   19 1   
    19    9   23 1   
    20   10   21 1   
    21   11   18 1   
    22   11   22 1   
    23   12   28 1   
    24   12   29 1   
    25   12   30 1   
    26   13   16 1   
    27   13   34 1   
    28   13   44 1   
    29   13   47 1   
    30   14   20 1   
    31   14   35 1   
    32   14   36 1   
    33   14   37 1   
    34   15   16 1   
    35   15   33 1   
    36   15   39 1   
    37   15   45 1   
    38   16   19 1   
    39   16   38 1   
    40   18   41 1   
    41   19   42 1   
    42   20   43 1   
    43   20   46 1   
    44   31   45 1   
    45   32   40 1   
@<TRIPOS>SUBSTRUCTURE
     1 304         1 TEMP              0 ****  ****    0 ROOT
