@<TRIPOS>MOLECULE
304
   47    48     1     0     0
SMALL
bcc


@<TRIPOS>ATOM
      1 C1          0.1030    0.0890   -0.1370 c3        1 304     -0.169000
      2 C2          1.5510    0.0310    0.0040 c1        1 304     -0.075000
      3 C3         -0.0160   -0.0850    2.3340 c2        1 304      0.015000
      4 C4          1.8300    1.1930    7.2400 c2        1 304      0.047000
      5 C5         -0.6580   -0.0540    1.1310 c2        1 304     -0.237000
      6 C6          2.1810   -0.1490    1.2340 c2        1 304     -0.188000
      7 C7          1.4440   -0.0040    2.4280 c2        1 304      0.145000
      8 C8          2.2980    0.7060    6.0070 c2        1 304     -0.557000
      9 C9          3.9320    0.7290    7.8410 c2        1 304     -0.013000
     10 C10        -2.1080   -0.2240    1.1320 c2        1 304      0.300000
     11 C11         1.4490    0.6350    4.8420 c2        1 304      0.418000
     12 C12         3.6450   -0.3730    1.2510 c3        1 304     -0.172000
     13 C14         5.3160    2.4930   10.1420 c3        1 304     -0.239000
     14 C15        -4.2630    0.0630   -0.1290 c3        1 304     -0.194000
     15 C16         6.2590    0.2610   10.7340 c3        1 304     -0.173000
     16 C17         5.1190    0.9830    9.9970 c3        1 304      0.021000
     17 N18         2.7220    1.2180    8.2640 n2        1 304     -0.203000
     18 N19         2.0590    0.1780    3.6420 ns        1 304     -0.305000
     19 N20         5.0350    0.5500    8.6080 nu        1 304     -0.263000
     20 N21        -2.7870    0.0410   -0.2110 ny        1 304     -0.105000
     21 O22        -2.8580   -0.5230    2.0500 o         1 304     -0.179000
     22 O23         0.2450    0.9530    4.8410 o         1 304     -0.351000
     23 S24         3.9250    0.2530    6.1450 ss        1 304      0.395000
     24 H1         -0.1130    1.0890   -0.6190 hc        1 304      0.144000
     25 H2         -0.1740   -0.7190   -0.8750 hc        1 304      0.144000
     26 H3         -0.5940   -0.2230    3.2730 ha        1 304      0.205000
     27 H4          0.8020    1.5510    7.4130 h4        1 304      0.206000
     28 H12         4.1810    0.5230    1.6560 hc        1 304      0.097333
     29 H12A        3.9040   -1.2610    1.8810 hc        1 304      0.097333
     30 H12B        4.0170   -0.5560    0.2110 hc        1 304      0.097333
     31 H13         6.1070   -1.7100    9.8220 hc        1 304      0.081000
     32 H13A        7.2400    0.4800   10.2370 hc        1 304      0.096500
     33 H13B        5.0430   -1.4560   11.2650 hc        1 304      0.081000
     34 H14B        5.2930    2.7560   11.2270 hc        1 304      0.092667
     35 H15        -4.5850    0.8730    0.5800 hx        1 304      0.151667
     36 H15A       -4.6870    0.2540   -1.1510 hx        1 304      0.151667
     37 H15B       -4.6310   -0.9250    0.2620 hx        1 304      0.151667
     38 H16         4.1410    0.7020   10.4950 h1        1 304      0.129000
     39 H16A        6.8280   -1.6830   11.4810 hc        1 304      0.081000
     40 H17         6.3060    0.6970   11.7680 hc        1 304      0.096500
     41 HN19        3.0550    0.0640    3.6530 hn        1 304      0.257000
     42 HN20        5.8880    0.3110    8.1540 hn        1 304      0.244000
     43 HN21       -2.4430    0.9410   -0.5660 hn        1 304      0.254000
     44 H14         4.4980    3.0530    9.6280 hc        1 304      0.092667
     45 C13         6.0450   -1.2260   10.8270 c3        1 304     -0.216000
     46 H212       -2.4870   -0.6910   -0.8650 hn        1 304      0.254000
     47 H14A        6.2970    2.8140    9.7180 hc        1 304      0.092667
@<TRIPOS>BOND
     1    1    2 1   
     2    1    5 1   
     3    1   24 1   
     4    1   25 1   
     5    2    6 1   
     6    3    5 1   
     7    3    7 1   
     8    3   26 1   
     9    4    8 1   
    10    4   17 1   
    11    4   27 1   
    12    5   10 1   
    13    6    7 1   
    14    6   12 1   
    15    7   18 1   
    16    8   11 1   
    17    8   23 1   
    18    9   17 1   
    19    9   19 1   
    20    9   23 1   
    21   10   20 1   
    22   10   21 1   
    23   11   18 1   
    24   11   22 1   
    25   12   28 1   
    26   12   29 1   
    27   12   30 1   
    28   13   16 1   
    29   13   34 1   
    30   13   44 1   
    31   13   47 1   
    32   14   20 1   
    33   14   35 1   
    34   14   36 1   
    35   14   37 1   
    36   15   16 1   
    37   15   32 1   
    38   15   40 1   
    39   15   45 1   
    40   16   19 1   
    41   16   38 1   
    42   18   41 1   
    43   19   42 1   
    44   20   43 1   
    45   20   46 1   
    46   31   45 1   
    47   33   45 1   
    48   39   45 1   
@<TRIPOS>SUBSTRUCTURE
     1 304         1 TEMP              0 ****  ****    0 ROOT
