@<TRIPOS>MOLECULE
304
   46    41     1     0     0
SMALL
bcc


@<TRIPOS>ATOM
      1 C1         -2.3870   -1.0920   -4.9390 c1        1 304     -0.129000
      2 C2         -2.7500   -2.1140   -4.0660 c1        1 304     -0.115000
      3 C3         -0.9800   -0.1460   -3.2270 c1        1 304     -0.095000
      4 C4         -0.6820    0.8110    2.3280 c1        1 304     -0.009000
      5 C5         -1.5060   -0.1110   -4.5250 c1        1 304     -0.101000
      6 C6         -2.2250   -2.1470   -2.7720 c1        1 304     -0.102000
      7 C7         -1.3430   -1.1650   -2.3580 c1        1 304      0.073000
      8 C8         -0.3480   -0.0770    1.2390 c1        1 304     -0.493000
      9 C9          1.3440   -0.3710    3.0460 c1        1 304     -0.086000
     10 C10        -1.1790    1.0640   -5.4480 c2        1 304      0.345000
     11 C11        -1.0920   -0.1680   -0.1230 c1        1 304      0.401000
     12 C12        -2.5820   -3.2920   -1.8370 c3        1 304     -0.183000
     13 C13         2.6580    0.8110    7.4060 c3        1 304     -0.211000
     14 C14         3.5990    1.5720    4.3890 c3        1 304     -0.244000
     15 C15        -1.9670    2.4230   -7.3300 c3        1 304     -0.077000
     16 C16         3.1590   -0.0130    6.2190 c3        1 304     -0.165000
     17 C17         2.6180    0.5730    4.9340 c3        1 304      0.001000
     18 N18         0.3980    0.6210    3.4760 n2        1 304     -0.187000
     19 N19        -0.6600   -1.0890   -1.1090 n3        1 304     -0.330000
     20 N20         2.4130   -0.4700    3.9730 n2        1 304     -0.252000
     21 N21        -1.7730    1.1490   -6.7190 n         1 304     -0.382000
     22 O22        -0.4590    1.9300   -5.0720 o         1 304     -0.357000
     23 O23        -2.0400    0.5530   -0.3420 o         1 304     -0.343000
     24 S24         0.9200   -0.8500    1.6310 ss        1 304      0.417000
     25 H1         -2.7570   -1.0680   -5.8510 ha        1 304      0.139000
     26 H2         -3.3590   -2.7930   -4.3520 ha        1 304      0.135000
     27 H3         -0.3620    0.5420   -2.9330 ha        1 304      0.184000
     28 H4         -1.4320    1.4130    2.3510 DU        1 304      0.204000
     29 H12        -3.0210   -2.9350   -1.0370 hc        1 304      0.084667
     30 H12A       -1.7560   -3.7770   -1.5730 hc        1 304      0.084667
     31 H12B       -3.1670   -3.8850   -2.2790 hc        1 304      0.084667
     32 H13         1.7700    0.4860    7.6740 hc        1 304      0.078667
     33 H13A        2.5990    1.7220    7.1580 hc        1 304      0.078667
     34 H13B        3.2770    0.7180    8.1530 hc        1 304      0.078667
     35 H14         4.4540    1.1080    4.1590 hc        1 304      0.086667
     36 H14A        3.2350    1.9810    3.6020 hc        1 304      0.086667
     37 H14B        3.7720    2.2630    5.0680 hc        1 304      0.086667
     38 H15        -1.1550    2.9750   -7.2080 h1        1 304      0.083000
     39 H15A       -2.1450    2.3000   -8.3110 h1        1 304      0.083000
     40 H15B       -2.7220    2.8670   -6.9180 h1        1 304      0.083000
     41 H16         4.1280    0.0020    6.1990 hc        1 304      0.086500
     42 H16A        2.8490   -0.9350    6.3120 hc        1 304      0.086500
     43 H17         1.7790    1.0110    5.1110 h1        1 304      0.129000
     44 HN19        0.0050   -1.6410   -0.9360 hn        1 304      0.230000
     45 HN20        2.9300   -1.1650    3.9680 hn        1 304      0.207000
     46 HN21       -2.0550    0.4100   -7.1310 hn        1 304      0.224000
@<TRIPOS>BOND
     1    1    5 1   
     2    1   25 1   
     3    2    6 1   
     4    2   26 1   
     5    3    7 1   
     6    3   27 1   
     7    4    8 1   
     8    4   18 1   
     9    5   10 1   
    10    6   12 1   
    11    7   19 1   
    12    8   24 1   
    13    9   18 1   
    14    9   24 1   
    15   10   21 1   
    16   10   22 1   
    17   11   19 1   
    18   11   23 1   
    19   12   29 1   
    20   12   30 1   
    21   12   31 1   
    22   13   16 1   
    23   13   32 1   
    24   13   33 1   
    25   13   34 1   
    26   14   17 1   
    27   14   35 1   
    28   14   36 1   
    29   14   37 1   
    30   15   21 1   
    31   15   38 1   
    32   15   39 1   
    33   15   40 1   
    34   16   17 1   
    35   16   41 1   
    36   16   42 1   
    37   17   20 1   
    38   17   43 1   
    39   19   44 1   
    40   20   45 1   
    41   21   46 1   
@<TRIPOS>SUBSTRUCTURE
     1 304         1 TEMP              0 ****  ****    0 ROOT
