@<TRIPOS>MOLECULE
306
   57    62     1     0     0
SMALL
bcc


@<TRIPOS>ATOM
      1 C           0.0280   -0.0770    0.0760 cc        1 306      0.307200
      2 C1          1.4720    0.0710    0.1250 cc        1 306     -0.206300
      3 C2          1.7510    0.3020    1.4880 cd        1 306     -0.133300
      4 N           0.5240    0.2810    2.1480 na        1 306     -0.017600
      5 N3         -0.4980    0.0590    1.3190 nd        1 306     -0.510800
      6 C4          3.0420   -1.8750   -6.8510 cc        1 306     -0.045100
      7 C5          3.8830   -2.4270   -7.8200 cd        1 306     -0.112200
      8 N6          1.6920   -1.9940   -7.2700 na        1 306     -0.188400
      9 C7          3.0530   -2.8650   -8.9170 ca        1 306     -0.110800
     10 C8          1.6910   -2.5430   -8.5550 ca        1 306     -0.035200
     11 C9          0.6290   -2.8330   -9.4260 ca        1 306     -0.154000
     12 C10         0.9310   -3.4380  -10.6350 ca        1 306     -0.102000
     13 C11         2.2560   -3.7670  -10.9940 ca        1 306     -0.121300
     14 C12         3.3160   -3.4840  -10.1390 ca        1 306     -0.050000
     15 C13         2.4950   -4.4780  -12.2950 c3        1 306      0.221100
     16 C14         2.3960   -0.0050   -0.9730 ca        1 306     -0.022000
     17 C15         3.7080    0.5010   -0.8390 ca        1 306     -0.077000
     18 C16         4.6120    0.4370   -1.8800 ca        1 306     -0.179000
     19 C17         2.0170   -0.5760   -2.1860 ca        1 306     -0.069000
     20 C18         2.9140   -0.6520   -3.2630 ca        1 306     -0.125800
     21 C19         4.2340   -0.1440   -3.1180 ca        1 306      0.090600
     22 N20         5.1220   -0.2260   -4.1800 n         1 306     -0.442100
     23 C21         4.7840   -0.7990   -5.4130 c         1 306      0.705700
     24 C22         3.4000   -1.3070   -5.5680 cc        1 306     -0.104200
     25 C23         2.5330   -1.2370   -4.5210 cd        1 306     -0.043200
     26 O           5.6740   -0.8390   -6.2830 o         1 306     -0.626500
     27 N24         3.5650   -3.9050  -13.1040 n3        1 306     -0.728600
     28 C25         3.2940   -2.5280  -13.4970 c3        1 306      0.168800
     29 C26         4.4040   -1.9160  -14.3500 c3        1 306     -0.076900
     30 C27         4.7100   -2.7860  -15.5490 c3        1 306     -0.078400
     31 C28         5.0140   -4.2020  -15.1100 c3        1 306     -0.076900
     32 C29         3.8920   -4.7620  -14.2370 c3        1 306      0.168800
     33 H          -0.5930   -0.2620   -0.8000 h4        1 306      0.044100
     34 H2          2.6930    0.4650    2.0100 h4        1 306      0.178000
     35 HN          0.3640    0.4070    3.1190 hn        1 306      0.323700
     36 H5          4.9690   -2.4980   -7.7650 ha        1 306      0.182000
     37 HN6         0.9610   -1.4400   -6.9090 hn        1 306      0.286700
     38 H9         -0.4070   -2.5880   -9.1580 ha        1 306      0.132000
     39 H10         0.1140   -3.6700  -11.3360 ha        1 306      0.128000
     40 H12         4.3490   -3.7400  -10.4200 ha        1 306      0.153000
     41 H131        2.7920   -5.5410  -12.0540 h1        1 306      0.034700
     42 H132        1.5240   -4.5250  -12.8740 h1        1 306      0.034700
     43 H15         4.0110    0.9580    0.1160 ha        1 306      0.134000
     44 H16         5.6290    0.8380   -1.7480 ha        1 306      0.140000
     45 H17         1.0000   -0.9810   -2.3100 ha        1 306      0.139000
     46 HN20        6.0470    0.1260   -4.0640 hn        1 306      0.335500
     47 H23         1.5070   -1.6340   -4.5950 ha        1 306      0.143000
     48 H251        3.1850   -1.9270  -12.5500 h1        1 306      0.030700
     49 H252        2.3220   -2.4480  -14.0680 h1        1 306      0.030700
     50 H261        5.3290   -1.7880  -13.7300 hc        1 306      0.046200
     51 H262        4.0720   -0.9000  -14.6840 hc        1 306      0.046200
     52 H271        5.5850   -2.3670  -16.1100 hc        1 306      0.038700
     53 H272        3.8320   -2.7880  -16.2470 hc        1 306      0.038700
     54 H281        5.9790   -4.2200  -14.5400 hc        1 306      0.046200
     55 H282        5.1310   -4.8670  -16.0030 hc        1 306      0.046200
     56 H291        4.2190   -5.7580  -13.8250 h1        1 306      0.030700
     57 H292        2.9880   -4.9440  -14.8910 h1        1 306      0.030700
@<TRIPOS>BOND
     1    1    2 1   
     2    1    5 2   
     3    1   33 1   
     4    2    3 2   
     5    2   16 1   
     6    3    4 1   
     7    3   34 1   
     8    4    5 1   
     9    4   35 1   
    10    6    7 2   
    11    6    8 1   
    12    6   24 1   
    13    7    9 1   
    14    7   36 1   
    15    8   10 1   
    16    8   37 1   
    17    9   10 ar  
    18    9   14 ar  
    19   10   11 ar  
    20   11   12 ar  
    21   11   38 1   
    22   12   13 ar  
    23   12   39 1   
    24   13   14 ar  
    25   13   15 1   
    26   14   40 1   
    27   15   27 1   
    28   15   41 1   
    29   15   42 1   
    30   16   17 ar  
    31   16   19 ar  
    32   17   18 ar  
    33   17   43 1   
    34   18   21 ar  
    35   18   44 1   
    36   19   20 ar  
    37   19   45 1   
    38   20   21 ar  
    39   20   25 1   
    40   21   22 1   
    41   22   23 1   
    42   22   46 1   
    43   23   24 1   
    44   23   26 2   
    45   24   25 2   
    46   25   47 1   
    47   27   28 1   
    48   27   32 1   
    49   28   29 1   
    50   28   48 1   
    51   28   49 1   
    52   29   30 1   
    53   29   50 1   
    54   29   51 1   
    55   30   31 1   
    56   30   52 1   
    57   30   53 1   
    58   31   32 1   
    59   31   54 1   
    60   31   55 1   
    61   32   56 1   
    62   32   57 1   
@<TRIPOS>SUBSTRUCTURE
     1 306         1 TEMP              0 ****  ****    0 ROOT
