@<TRIPOS>MOLECULE
306
   57    62     1     0     0
SMALL
bcc


@<TRIPOS>ATOM
      1 C         -11.7300   -5.4050   -1.7760 cc        1 306      0.307200
      2 C1        -12.4550   -4.9560   -0.5990 cc        1 306     -0.206300
      3 C2        -13.5400   -5.8510   -0.4980 cd        1 306     -0.133300
      4 N         -13.4130   -6.7420   -1.5630 na        1 306     -0.017600
      5 N3        -12.3470   -6.4820   -2.3220 nd        1 306     -0.510800
      6 C4         -7.6090    0.0830    1.8590 cc        1 306     -0.045100
      7 C5         -6.9970    0.8120    2.8820 cd        1 306     -0.112200
      8 N6         -6.7220   -0.0270    0.7570 na        1 306     -0.188400
      9 C7         -5.7010    1.2290    2.4010 ca        1 306     -0.110800
     10 C8         -5.5790    0.7200    1.0530 ca        1 306     -0.035200
     11 C9         -4.4250    0.9670    0.2940 ca        1 306     -0.154000
     12 C10        -3.4120    1.7080    0.8810 ca        1 306     -0.102000
     13 C11        -3.5150    2.2020    2.1990 ca        1 306     -0.121300
     14 C12        -4.6550    1.9630    2.9600 ca        1 306     -0.050000
     15 C13        -2.3490    2.9440    2.7850 c3        1 306      0.221100
     16 C14       -12.1300   -3.8510    0.2580 ca        1 306     -0.022000
     17 C15       -13.0980   -3.3210    1.1400 ca        1 306     -0.077000
     18 C16       -12.8070   -2.2610    1.9750 ca        1 306     -0.179000
     19 C17       -10.8580   -3.2810    0.2380 ca        1 306     -0.069000
     20 C18       -10.5340   -2.2000    1.0730 ca        1 306     -0.125800
     21 C19       -11.5140   -1.6760    1.9600 ca        1 306      0.090600
     22 N20       -11.1910   -0.6130    2.7890 n         1 306     -0.442100
     23 C21        -9.9230   -0.0170    2.8050 c         1 306      0.705700
     24 C22        -8.9120   -0.5500    1.8630 cc        1 306     -0.104200
     25 C23        -9.2260   -1.6020    1.0570 cd        1 306     -0.043200
     26 O          -9.7440    0.9150    3.6110 o         1 306     -0.626500
     27 N24        -2.7050    4.1980    3.4400 n3        1 306     -0.728600
     28 C25        -3.3110    5.1560    2.5250 c3        1 306      0.168800
     29 C26        -3.6830    6.4770    3.1950 c3        1 306     -0.076900
     30 C27        -2.4950    7.0740    3.9180 c3        1 306     -0.078400
     31 C28        -1.9020    6.0670    4.8800 c3        1 306     -0.076900
     32 C29        -1.5730    4.7540    4.1720 c3        1 306      0.168800
     33 H         -10.8260   -4.9730   -2.2050 h4        1 306      0.044100
     34 H2        -14.3510   -5.9180    0.2260 h4        1 306      0.178000
     35 HN        -14.0120   -7.5020   -1.7820 hn        1 306      0.323700
     36 H5         -7.4270    1.0390    3.8560 ha        1 306      0.182000
     37 HN6        -7.0200   -0.2350   -0.1600 hn        1 306      0.286700
     38 H9         -4.3270    0.5850   -0.7300 ha        1 306      0.132000
     39 H10        -2.4990    1.9180    0.3010 ha        1 306      0.128000
     40 H12        -4.7360    2.3490    3.9880 ha        1 306      0.153000
     41 H131       -1.8800    2.2790    3.5690 h1        1 306      0.034700
     42 H132       -1.5730    3.1100    1.9780 h1        1 306      0.034700
     43 H15       -14.1060   -3.7640    1.1570 ha        1 306      0.134000
     44 H16       -13.5810   -1.8680    2.6520 ha        1 306      0.140000
     45 H17       -10.0870   -3.6810   -0.4380 ha        1 306      0.139000
     46 HN20      -11.8840   -0.2590    3.4130 hn        1 306      0.335500
     47 H23        -8.4850   -2.0410    0.3680 ha        1 306      0.143000
     48 H251       -4.2440    4.6780    2.1130 h1        1 306      0.030700
     49 H252       -2.6270    5.3810    1.6530 h1        1 306      0.030700
     50 H261       -4.5200    6.3090    3.9210 hc        1 306      0.046200
     51 H262       -4.0500    7.1820    2.4060 hc        1 306      0.046200
     52 H271       -1.7170    7.3840    3.1710 hc        1 306      0.038700
     53 H272       -2.8100    7.9930    4.4760 hc        1 306      0.038700
     54 H281       -0.9590    6.4710    5.3300 hc        1 306      0.046200
     55 H282       -2.6250    5.8750    5.7140 hc        1 306      0.046200
     56 H291       -0.6860    4.9280    3.4920 h1        1 306      0.030700
     57 H292       -1.2640    3.9960    4.9460 h1        1 306      0.030700
@<TRIPOS>BOND
     1    1    2 1   
     2    1    5 2   
     3    1   33 1   
     4    2    3 2   
     5    2   16 1   
     6    3    4 1   
     7    3   34 1   
     8    4    5 1   
     9    4   35 1   
    10    6    7 2   
    11    6    8 1   
    12    6   24 1   
    13    7    9 1   
    14    7   36 1   
    15    8   10 1   
    16    8   37 1   
    17    9   10 ar  
    18    9   14 ar  
    19   10   11 ar  
    20   11   12 ar  
    21   11   38 1   
    22   12   13 ar  
    23   12   39 1   
    24   13   14 ar  
    25   13   15 1   
    26   14   40 1   
    27   15   27 1   
    28   15   41 1   
    29   15   42 1   
    30   16   17 ar  
    31   16   19 ar  
    32   17   18 ar  
    33   17   43 1   
    34   18   21 ar  
    35   18   44 1   
    36   19   20 ar  
    37   19   45 1   
    38   20   21 ar  
    39   20   25 1   
    40   21   22 1   
    41   22   23 1   
    42   22   46 1   
    43   23   24 1   
    44   23   26 2   
    45   24   25 2   
    46   25   47 1   
    47   27   28 1   
    48   27   32 1   
    49   28   29 1   
    50   28   48 1   
    51   28   49 1   
    52   29   30 1   
    53   29   50 1   
    54   29   51 1   
    55   30   31 1   
    56   30   52 1   
    57   30   53 1   
    58   31   32 1   
    59   31   54 1   
    60   31   55 1   
    61   32   56 1   
    62   32   57 1   
@<TRIPOS>SUBSTRUCTURE
     1 306         1 TEMP              0 ****  ****    0 ROOT
