@<TRIPOS>MOLECULE
306
   57    49     1     0     0
SMALL
bcc


@<TRIPOS>ATOM
      1 C           1.4130    0.5850    8.6560 c1        1 306     -0.132000
      2 C1          0.3360    1.0730    7.9550 c2        1 306     -0.144000
      3 C2         -0.7470    0.9280    8.7140 c1        1 306     -0.132000
      4 N          -0.3680    0.3550    9.8840 n2        1 306     -0.120000
      5 N3          0.9720    0.1480    9.8340 n2        1 306     -0.120000
      6 C4         -0.1660    0.8780    0.6970 c2        1 306      0.007000
      7 C5          0.5810    0.1570   -0.1950 c1        1 306     -0.181000
      8 N6         -1.4530    0.8390    0.2950 n2        1 306     -0.188000
      9 C7         -0.2710   -0.3360   -1.1680 c1        1 306     -0.096000
     10 C8         -1.5180    0.0760   -0.8770 c1        1 306      0.011000
     11 C9         -2.6170   -0.3830   -1.6560 c1        1 306     -0.125250
     12 C10        -2.4030   -1.2420   -2.6980 c1        1 306     -0.125250
     13 C11        -1.1090   -1.6660   -2.9940 c1        1 306     -0.114000
     14 C12        -0.0500   -1.2180   -2.2370 c1        1 306     -0.057000
     15 C13        -0.9020   -2.6100   -4.3110 c3        1 306     -0.023000
     16 C14         0.3790    1.6810    6.6920 c1        1 306     -0.017000
     17 C15         0.8270    3.0340    6.6260 c1        1 306     -0.125250
     18 C16         1.0000    3.6470    5.3940 c1        1 306     -0.125250
     19 C17         0.1190    0.9870    5.5280 c1        1 306     -0.074000
     20 C18         0.3010    1.6290    4.2570 c1        1 306     -0.113000
     21 C19         0.7330    2.9330    4.2000 c1        1 306      0.094000
     22 N20         0.9060    3.5410    2.9920 n2        1 306     -0.288000
     23 C21         0.6470    2.8440    1.8190 c1        1 306      0.344000
     24 C22         0.2140    1.5350    1.8760 c1        1 306     -0.093000
     25 C23         0.0400    0.9280    3.0800 c1        1 306     -0.038000
     26 O           0.6330    3.4470    0.7410 o         1 306     -0.384000
     27 N24        -0.1290   -1.8970   -5.3000 n3        1 306     -0.254000
     28 C25        -0.9680   -1.6170   -6.4470 c3        1 306     -0.069000
     29 C26        -0.1980   -1.0250   -7.5980 c3        1 306     -0.155500
     30 C27         0.9780   -1.8090   -7.9500 c3        1 306     -0.157000
     31 C28         1.8330   -2.0890   -6.7820 c3        1 306     -0.155500
     32 C29         1.0630   -2.6870   -5.6450 c3        1 306     -0.069000
     33 H           2.3200    0.5630    8.3520 DU        1 306      0.212800
     34 H2         -1.5890    1.1700    8.4890 DU        1 306      0.212800
     35 HN         -0.9510    0.1340   10.6250 DU        1 306      0.212800
     36 H5          1.6030    0.0080   -0.1520 DU        1 306      0.212800
     37 HN6        -2.1310    1.2250    0.6980 DU        1 306      0.212800
     38 H9         -3.5420   -0.0800   -1.4410 ha        1 306      0.136250
     39 H10        -3.1690   -1.5630   -3.2440 ha        1 306      0.136250
     40 H12         0.8380   -1.5080   -2.4380 ha        1 306      0.147000
     41 H131       -0.3950   -3.4930   -4.0390 h1        1 306      0.074500
     42 H132       -1.7570   -2.8360   -4.6780 h1        1 306      0.074500
     43 H15         0.9000    3.5130    7.3710 ha        1 306      0.136250
     44 H16         1.3130    4.5790    5.3500 ha        1 306      0.136250
     45 H17        -0.2220    0.1060    5.5680 ha        1 306      0.136000
     46 HN20        1.1930    4.4150    2.9530 hn        1 306      0.251000
     47 H23        -0.1310    0.0010    3.1160 ha        1 306      0.149000
     48 H251       -1.6300   -1.0030   -6.1870 h1        1 306      0.070500
     49 H252       -1.4230   -2.4880   -6.7570 h1        1 306      0.070500
     50 H261       -0.7710   -0.9780   -8.3590 hc        1 306      0.084500
     51 H262        0.0790   -0.1510   -7.3640 hc        1 306      0.084500
     52 H271        0.6730   -2.6960   -8.3590 hc        1 306      0.077500
     53 H272        1.4970   -1.3150   -8.6100 hc        1 306      0.077500
     54 H281        2.5420   -2.7030   -7.0480 hc        1 306      0.084500
     55 H282        2.2200   -1.2890   -6.4960 hc        1 306      0.084500
     56 H291        1.6520   -2.7400   -4.8530 h1        1 306      0.070500
     57 H292        0.8020   -3.5380   -5.8820 h1        1 306      0.070500
@<TRIPOS>BOND
     1    1    2 1   
     2    1    5 1   
     3    2    3 1   
     4    2   16 1   
     5    3    4 1   
     6    4    5 1   
     7    6    7 1   
     8    6    8 1   
     9    6   24 1   
    10    7    9 1   
    11    8   10 1   
    12    9   10 1   
    13   11   12 1   
    14   11   38 1   
    15   12   39 1   
    16   13   14 1   
    17   13   15 1   
    18   14   40 1   
    19   15   27 1   
    20   15   41 1   
    21   15   42 1   
    22   16   19 1   
    23   17   18 1   
    24   17   43 1   
    25   18   44 1   
    26   19   45 1   
    27   20   21 1   
    28   20   25 1   
    29   21   22 1   
    30   22   46 1   
    31   23   24 1   
    32   23   26 1   
    33   25   47 1   
    34   27   28 1   
    35   27   32 1   
    36   28   29 1   
    37   28   48 1   
    38   28   49 1   
    39   29   30 1   
    40   29   50 1   
    41   29   51 1   
    42   30   31 1   
    43   30   52 1   
    44   30   53 1   
    45   31   32 1   
    46   31   54 1   
    47   31   55 1   
    48   32   56 1   
    49   32   57 1   
@<TRIPOS>SUBSTRUCTURE
     1 306         1 TEMP              0 ****  ****    0 ROOT
