@<TRIPOS>MOLECULE
307
   74    78     1     0     0
SMALL
bcc


@<TRIPOS>ATOM
      1 F9         -0.6080    0.1920   -0.7100 f         1 307     -0.223300
      2 C7          0.6160   -0.0270   -0.1220 c3        1 307      0.689200
      3 F10         0.3480   -0.1020    1.2200 f         1 307     -0.223300
      4 F8          1.2910    1.1560   -0.2850 f         1 307     -0.223300
      5 C6          1.3550   -1.2420   -0.6860 ca        1 307     -0.149300
      6 C11         1.2460   -1.5160   -2.0490 ca        1 307     -0.089000
      7 C5          2.1300   -2.0450    0.1500 ca        1 307     -0.053000
      8 C4          2.8000   -3.1460   -0.3870 ca        1 307     -0.110000
      9 C3          2.6970   -3.4500   -1.7410 ca        1 307     -0.097000
     10 C1          1.9150   -2.6340   -2.5850 ca        1 307     -0.049200
     11 N2          1.7900   -2.9300   -3.9660 na        1 307      0.057500
     12 C12         0.6140   -2.8610   -4.6820 cc        1 307     -0.010100
     13 C16         2.8390   -3.2710   -4.8530 ca        1 307     -0.052200
     14 C20         4.2160   -3.4230   -4.6330 ca        1 307     -0.096000
     15 C19         5.0120   -3.7410   -5.7240 ca        1 307     -0.100000
     16 C18         4.4670   -3.9000   -7.0110 ca        1 307     -0.096000
     17 C15         2.2710   -3.4340   -6.1700 ca        1 307     -0.070800
     18 C17         3.1080   -3.7460   -7.2430 ca        1 307     -0.135000
     19 C13         0.8510   -3.1740   -6.0400 cd        1 307     -0.314400
     20 C14        -0.1210   -3.1230   -7.1130 c3        1 307      0.249000
     21 N21        -0.7840   -4.5050   -7.3270 n4        1 307     -0.703400
     22 C22         0.1630   -5.4360   -7.9870 c3        1 307      0.068100
     23 C23        -2.0490   -4.3520   -8.0950 c3        1 307      0.077800
     24 C24        -2.8430   -5.6660   -8.2400 c3        1 307      0.078800
     25 N25        -4.1750   -5.4860   -8.8910 n4        1 307     -0.686400
     26 C28        -5.1510   -4.8610   -7.9600 c3        1 307      0.077100
     27 C26        -4.6700   -6.8410   -9.3960 c3        1 307      0.218000
     28 C27        -5.9700   -6.7660  -10.0910 cc        1 307     -0.435400
     29 C29        -6.0630   -6.7550  -11.4530 cd        1 307      0.198100
     30 O30        -7.2180   -6.8100  -12.1450 os        1 307     -0.170200
     31 C31        -8.4090   -6.9520  -11.4180 ca        1 307      0.100100
     32 C32        -8.4270   -6.9880  -10.0140 ca        1 307     -0.212600
     33 C35        -9.6660   -7.1460   -9.3740 ca        1 307     -0.042000
     34 C33        -7.1840   -6.8730   -9.2600 c         1 307      0.613900
     35 O34        -7.1070   -6.8490   -8.0190 o         1 307     -0.585100
     36 C40        -9.5730   -7.0580  -12.1830 ca        1 307     -0.129000
     37 C38       -10.7980   -7.2120  -11.5260 ca        1 307      0.006700
     38 C39       -12.0440   -7.3320  -12.3150 c3        1 307     -0.077800
     39 C36       -10.8430   -7.2570  -10.1140 ca        1 307     -0.072300
     40 C37       -12.1410   -7.4270   -9.4200 c3        1 307     -0.068800
     41 H11         0.6410   -0.8490   -2.6860 ha        1 307      0.158000
     42 H5          2.2080   -1.8120    1.2270 ha        1 307      0.180000
     43 H4          3.4170   -3.7830    0.2690 ha        1 307      0.170000
     44 H3          3.2280   -4.3290   -2.1440 ha        1 307      0.157000
     45 H12        -0.3270   -2.5810   -4.1930 h4        1 307      0.183000
     46 H20         4.6520   -3.2780   -3.6330 ha        1 307      0.164000
     47 H19         6.0990   -3.8620   -5.5840 ha        1 307      0.166000
     48 H18         5.1420   -4.1380   -7.8500 ha        1 307      0.158000
     49 H17         2.7000   -3.8410   -8.2590 ha        1 307      0.122000
     50 H141       -0.9580   -2.4050   -6.8810 hx        1 307      0.099700
     51 H142        0.3590   -2.8530   -8.0970 hx        1 307      0.099700
     52 H221       -0.2350   -6.4840   -7.9520 hx        1 307      0.109700
     53 H222        1.1490   -5.3950   -7.4350 hx        1 307      0.109700
     54 H223        0.3310   -5.1210   -9.0500 hx        1 307      0.109700
     55 H231       -2.6770   -3.5790   -7.5610 hx        1 307      0.112200
     56 H232       -1.7840   -3.9480   -9.1150 hx        1 307      0.112200
     57 H241       -3.0210   -6.1360   -7.2280 hx        1 307      0.116200
     58 H242       -2.2440   -6.3920   -8.8660 hx        1 307      0.116200
     59 H281       -4.7330   -3.9060   -7.5500 hx        1 307      0.116367
     60 H282       -5.3990   -5.5790   -7.1270 hx        1 307      0.116367
     61 H283       -6.1040   -4.6480   -8.5210 hx        1 307      0.116367
     62 H261       -4.7730   -7.5000   -8.4820 hx        1 307      0.108700
     63 H262       -3.8650   -7.2420  -10.0760 hx        1 307      0.108700
     64 H29        -5.2120   -6.7040  -12.1610 h4        1 307      0.188000
     65 H35        -9.6900   -7.1830   -8.2710 ha        1 307      0.171000
     66 H40        -9.5180   -7.0260  -13.2830 ha        1 307      0.175000
     67 H391      -12.7560   -6.5130  -12.0370 hc        1 307      0.071367
     68 H392      -12.5440   -8.3110  -12.0950 hc        1 307      0.071367
     69 H393      -11.8460   -7.2740  -13.4130 hc        1 307      0.071367
     70 H371      -12.6240   -8.3870   -9.7360 hc        1 307      0.065367
     71 H372      -12.8340   -6.5880   -9.6860 hc        1 307      0.065367
     72 H373      -12.0140   -7.4430   -8.3100 hc        1 307      0.065367
     73 H211       -0.9990   -4.8830   -6.3930 hn        1 307      0.447800
     74 H251       -4.0700   -4.8670   -9.7050 hn        1 307      0.439800
@<TRIPOS>BOND
     1    1    2 1   
     2    2    3 1   
     3    2    4 1   
     4    2    5 1   
     5    5    6 ar  
     6    5    7 ar  
     7    6   10 ar  
     8    6   41 1   
     9    7    8 ar  
    10    7   42 1   
    11    8    9 ar  
    12    8   43 1   
    13    9   10 ar  
    14    9   44 1   
    15   10   11 1   
    16   11   12 1   
    17   11   13 1   
    18   12   19 2   
    19   12   45 1   
    20   13   14 ar  
    21   13   17 ar  
    22   14   15 ar  
    23   14   46 1   
    24   15   16 ar  
    25   15   47 1   
    26   16   18 ar  
    27   16   48 1   
    28   17   18 ar  
    29   17   19 1   
    30   18   49 1   
    31   19   20 1   
    32   20   21 1   
    33   20   50 1   
    34   20   51 1   
    35   21   22 1   
    36   21   23 1   
    37   21   73 1   
    38   22   52 1   
    39   22   53 1   
    40   22   54 1   
    41   23   24 1   
    42   23   55 1   
    43   23   56 1   
    44   24   25 1   
    45   24   57 1   
    46   24   58 1   
    47   25   26 1   
    48   25   27 1   
    49   25   74 1   
    50   26   59 1   
    51   26   60 1   
    52   26   61 1   
    53   27   28 1   
    54   27   62 1   
    55   27   63 1   
    56   28   29 2   
    57   28   34 1   
    58   29   30 1   
    59   29   64 1   
    60   30   31 1   
    61   31   32 ar  
    62   31   36 ar  
    63   32   33 ar  
    64   32   34 1   
    65   33   39 ar  
    66   33   65 1   
    67   34   35 2   
    68   36   37 ar  
    69   36   66 1   
    70   37   38 1   
    71   37   39 ar  
    72   38   67 1   
    73   38   68 1   
    74   38   69 1   
    75   39   40 1   
    76   40   70 1   
    77   40   71 1   
    78   40   72 1   
@<TRIPOS>SUBSTRUCTURE
     1 307         1 TEMP              0 ****  ****    0 ROOT
