@<TRIPOS>MOLECULE
307
   72    63     1     0     0
SMALL
bcc


@<TRIPOS>ATOM
      1 F9          3.8720    3.3900    9.2340 f         1 307     -0.163667
      2 C7          3.0760    3.4540    8.1330 c3        1 307      0.466000
      3 F10         3.1140    4.7530    7.6030 f         1 307     -0.163667
      4 F8          1.8820    3.1650    8.4560 f         1 307     -0.163667
      5 C6          3.5690    2.4650    7.0970 c2        1 307     -0.139000
      6 C11         3.4230    2.7460    5.7520 c1        1 307     -0.108000
      7 C5          4.2090    1.2940    7.5020 c2        1 307     -0.097000
      8 C4          4.6920    0.4200    6.5720 c1        1 307     -0.114000
      9 C3          4.5440    0.7030    5.1930 c1        1 307     -0.126000
     10 C1          3.9120    1.8600    4.7970 c1        1 307      0.073000
     11 N2          3.7920    2.1590    3.4750 n2        1 307     -0.138000
     12 C12         2.6330    1.7860    2.7520 c1        1 307     -0.017000
     13 C16         4.6110    2.8630    2.6230 c1        1 307     -0.017000
     14 C20         5.8740    3.4130    2.7870 c1        1 307     -0.123000
     15 C19         6.5230    4.0430    1.6930 c1        1 307     -0.123000
     16 C18         5.8990    4.1100    0.4700 c1        1 307     -0.123000
     17 C15         3.9760    2.9330    1.3740 c1        1 307     -0.107500
     18 C17         4.6170    3.5530    0.3010 c1        1 307     -0.123000
     19 C13         2.7570    2.2650    1.4700 c1        1 307     -0.107500
     20 C14         1.5960    2.2120    0.4910 c2        1 307      0.000000
     21 N21         1.4180    0.8600    0.0300 n3        1 307     -0.265000
     22 C22         2.2360    0.6420   -1.1370 c3        1 307     -0.128000
     23 C23        -0.0060    0.6410   -0.3240 c3        1 307     -0.069000
     24 C24        -0.4070   -0.8690   -0.0200 c3        1 307     -0.068000
     25 N25        -1.6870   -1.1610   -0.6350 n3        1 307     -0.276000
     26 C28        -2.6650   -1.3340    0.3650 c3        1 307     -0.123000
     27 C26        -1.5840   -2.3660   -1.3940 c3        1 307     -0.016000
     28 C27        -2.5450   -2.2810   -2.6770 c2        1 307     -0.258000
     29 C29        -2.4170   -1.2120   -3.5520 c2        1 307      0.057000
     30 O30        -3.2870   -1.0930   -4.6480 o         1 307     -0.134000
     31 C31        -4.2720   -2.0440   -4.8520 c1        1 307     -0.053500
     32 C32        -4.3940   -3.0880   -3.9930 c1        1 307     -0.053500
     33 C35        -5.3580   -4.1030   -4.2420 c1        1 307     -0.101500
     34 C33        -3.5030   -3.2060   -2.8760 c1        1 307      0.315000
     35 O34        -3.4760   -4.2520   -2.2290 o         1 307     -0.312000
     36 C40        -5.1000   -1.9640   -5.9920 c1        1 307     -0.101500
     37 C38        -6.0290   -2.9350   -6.2380 c1        1 307     -0.060500
     38 C39        -7.0220   -2.7320   -7.3260 c3        1 307     -0.181000
     39 C36        -6.1620   -4.0250   -5.3490 c1        1 307     -0.060500
     40 C37        -7.2490   -5.0520   -5.5760 c3        1 307     -0.181000
     41 H11         2.9680    3.5810    5.4680 ha        1 307      0.162000
     42 H5          4.3140    1.0920    8.4810 ha        1 307      0.156000
     43 H4          5.1070   -0.3380    6.8390 ha        1 307      0.147000
     44 H3          4.9110    0.0400    4.4840 ha        1 307      0.155000
     45 H12         1.9110    1.3490    3.0890 DU        1 307      0.183000
     46 H20         6.3440    3.3630    3.7090 ha        1 307      0.134000
     47 H19         7.4720    4.4600    1.8180 ha        1 307      0.134000
     48 H18         6.3700    4.5650   -0.3200 ha        1 307      0.134000
     49 H17         4.1640    3.6030   -0.5950 ha        1 307      0.134000
     50 H141        0.8360    2.4920    0.9030 h4        1 307      0.080000
     51 H142        1.7820    2.7800   -0.2490 h4        1 307      0.080000
     52 H221        3.0310    0.1690   -0.8890 h1        1 307      0.074000
     53 H222        2.4890    1.5380   -1.5440 h1        1 307      0.074000
     54 H223        1.7270    0.1090   -1.7970 h1        1 307      0.074000
     55 H231       -0.5870    1.2610    0.2180 h1        1 307      0.076500
     56 H232       -0.1300    0.8190   -1.2520 h1        1 307      0.076500
     57 H241        0.3200   -1.5040   -0.4130 h1        1 307      0.081000
     58 H242       -0.4690   -1.0020    0.9150 h1        1 307      0.081000
     59 H281       -2.5100   -0.7410    1.0630 h1        1 307      0.074667
     60 H282       -3.5430   -1.1670   -0.0130 h1        1 307      0.074667
     61 H283       -2.6250   -2.2080    0.6860 h1        1 307      0.074667
     62 H261       -1.8620   -3.1550   -0.8140 h1        1 307      0.095500
     63 H262       -0.6790   -2.4850   -1.6820 h1        1 307      0.095500
     64 H29        -1.7370   -0.6460   -3.4620 h4        1 307      0.194000
     65 H35        -5.4520   -4.9090   -3.5840 ha        1 307      0.157000
     66 H40        -5.0390   -1.2410   -6.5510 ha        1 307      0.157000
     67 H391       -7.9060   -2.7690   -6.9660 hc        1 307      0.087833
     68 H392       -6.9160   -3.4340   -8.0060 hc        1 307      0.087833
     69 H393       -6.8620   -1.8010   -7.7610 hc        1 307      0.087833
     70 H371       -7.1450   -5.4500   -6.5090 hc        1 307      0.087833
     71 H372       -7.1760   -5.7880   -4.8820 hc        1 307      0.087833
     72 H373       -8.1720   -4.5970   -5.4970 hc        1 307      0.087833
@<TRIPOS>BOND
     1    1    2 1   
     2    2    3 1   
     3    2    4 1   
     4    2    5 1   
     5    5    6 1   
     6    5    7 1   
     7    6   41 1   
     8    7    8 1   
     9    7   42 1   
    10    8   43 1   
    11    9   10 1   
    12    9   44 1   
    13   11   12 1   
    14   11   13 1   
    15   12   19 1   
    16   13   17 1   
    17   14   15 1   
    18   14   46 1   
    19   15   47 1   
    20   16   18 1   
    21   16   48 1   
    22   18   49 1   
    23   20   21 1   
    24   20   50 1   
    25   20   51 1   
    26   21   22 1   
    27   21   23 1   
    28   22   52 1   
    29   22   53 1   
    30   22   54 1   
    31   23   24 1   
    32   23   55 1   
    33   23   56 1   
    34   24   25 1   
    35   24   57 1   
    36   24   58 1   
    37   25   26 1   
    38   25   27 1   
    39   26   59 1   
    40   26   60 1   
    41   26   61 1   
    42   27   28 1   
    43   27   62 1   
    44   27   63 1   
    45   28   29 1   
    46   28   34 1   
    47   29   30 1   
    48   29   64 1   
    49   31   32 1   
    50   31   36 1   
    51   32   33 1   
    52   33   65 1   
    53   34   35 1   
    54   36   66 1   
    55   37   38 1   
    56   37   39 1   
    57   38   67 1   
    58   38   68 1   
    59   38   69 1   
    60   39   40 1   
    61   40   70 1   
    62   40   71 1   
    63   40   72 1   
@<TRIPOS>SUBSTRUCTURE
     1 307         1 TEMP              0 ****  ****    0 ROOT
