@<TRIPOS>MOLECULE
307
   74    78     1     0     0
SMALL
bcc


@<TRIPOS>ATOM
      1 F9         -0.6100    0.2090   -0.7240 f         1 307     -0.223300
      2 C7          0.6130   -0.0090   -0.1340 c3        1 307      0.689200
      3 F10         0.3440   -0.0810    1.2070 f         1 307     -0.223300
      4 F8          1.2880    1.1730   -0.3000 f         1 307     -0.223300
      5 C6          1.3510   -1.2260   -0.6950 ca        1 307     -0.149300
      6 C11         1.2440   -1.5040   -2.0570 ca        1 307     -0.089000
      7 C5          2.1260   -2.0280    0.1450 ca        1 307     -0.053000
      8 C4          2.7960   -3.1300   -0.3890 ca        1 307     -0.109000
      9 C3          2.6940   -3.4380   -1.7420 ca        1 307     -0.097000
     10 C1          1.9130   -2.6230   -2.5890 ca        1 307     -0.049200
     11 N2          1.7890   -2.9240   -3.9700 na        1 307      0.057500
     12 C12         0.6130   -2.8560   -4.6860 cc        1 307     -0.010100
     13 C16         2.8380   -3.2680   -4.8540 ca        1 307     -0.052200
     14 C20         4.2150   -3.4200   -4.6330 ca        1 307     -0.096000
     15 C19         5.0120   -3.7420   -5.7220 ca        1 307     -0.100000
     16 C18         4.4680   -3.9030   -7.0090 ca        1 307     -0.096000
     17 C15         2.2720   -3.4340   -6.1710 ca        1 307     -0.070800
     18 C17         3.1090   -3.7500   -7.2430 ca        1 307     -0.135000
     19 C13         0.8520   -3.1730   -6.0430 cd        1 307     -0.314400
     20 C14        -0.1190   -3.1240   -7.1180 c3        1 307      0.249000
     21 N21        -0.7830   -4.5070   -7.3270 nx        1 307     -0.703400
     22 C22         0.1640   -5.4400   -7.9840 c3        1 307      0.068100
     23 C23        -2.0470   -4.3560   -8.0970 c3        1 307      0.077800
     24 C24        -2.8420   -5.6700   -8.2380 c3        1 307      0.078800
     25 N25        -4.1740   -5.4910   -8.8910 nx        1 307     -0.686400
     26 C28        -5.1500   -4.8610   -7.9620 c3        1 307      0.077100
     27 C26        -4.6700   -6.8470   -9.3900 c3        1 307      0.218000
     28 C27        -5.9700   -6.7730  -10.0860 cc        1 307     -0.435400
     29 C29        -6.0620   -6.7680  -11.4480 cd        1 307      0.198100
     30 O30        -7.2170   -6.8250  -12.1400 os        1 307     -0.170200
     31 C31        -8.4080   -6.9630  -11.4140 ca        1 307      0.100100
     32 C32        -8.4270   -6.9940  -10.0090 ca        1 307     -0.212600
     33 C35        -9.6660   -7.1470   -9.3690 ca        1 307     -0.042000
     34 C33        -7.1840   -6.8770   -9.2550 c         1 307      0.613900
     35 O34        -7.1070   -6.8470   -8.0150 o         1 307     -0.585100
     36 C40        -9.5720   -7.0710  -12.1790 ca        1 307     -0.129000
     37 C38       -10.7970   -7.2220  -11.5210 ca        1 307      0.006700
     38 C39       -12.0430   -7.3440  -12.3110 c3        1 307     -0.077800
     39 C36       -10.8430   -7.2610  -10.1090 ca        1 307     -0.072300
     40 C37       -12.1410   -7.4260   -9.4150 c3        1 307     -0.068800
     41 H11         0.6400   -0.8390   -2.6960 ha        1 307      0.158000
     42 H5          2.2030   -1.7910    1.2210 ha        1 307      0.180000
     43 H4          3.4110   -3.7650    0.2700 ha        1 307      0.170000
     44 H3          3.2240   -4.3180   -2.1420 ha        1 307      0.157000
     45 H12        -0.3270   -2.5740   -4.1990 h4        1 307      0.183000
     46 H20         4.6510   -3.2730   -3.6320 ha        1 307      0.164000
     47 H19         6.0990   -3.8630   -5.5800 ha        1 307      0.166000
     48 H18         5.1440   -4.1450   -7.8470 ha        1 307      0.158000
     49 H17         2.7030   -3.8470   -8.2590 ha        1 307      0.122000
     50 H141       -0.9560   -2.4050   -6.8880 hx        1 307      0.099700
     51 H142        0.3620   -2.8570   -8.1010 hx        1 307      0.099700
     52 H221       -0.2350   -6.4880   -7.9470 hx        1 307      0.109700
     53 H222        1.1500   -5.3980   -7.4320 hx        1 307      0.109700
     54 H223        0.3330   -5.1290   -9.0490 hx        1 307      0.109700
     55 H231       -2.6750   -3.5790   -7.5670 hx        1 307      0.112200
     56 H232       -1.7810   -3.9550   -9.1190 hx        1 307      0.112200
     57 H241       -3.0220   -6.1350   -7.2240 hx        1 307      0.116200
     58 H242       -2.2430   -6.3980   -8.8610 hx        1 307      0.116200
     59 H281       -4.7310   -3.9050   -7.5570 hx        1 307      0.116367
     60 H282       -5.3990   -5.5740   -7.1270 hx        1 307      0.116367
     61 H283       -6.1020   -4.6490   -8.5250 hx        1 307      0.116367
     62 H261       -4.7740   -7.5030   -8.4730 hx        1 307      0.108700
     63 H262       -3.8650   -7.2520  -10.0680 hx        1 307      0.108700
     64 H29        -5.2100   -6.7210  -12.1560 h4        1 307      0.188000
     65 H35        -9.6910   -7.1800   -8.2660 ha        1 307      0.171000
     66 H40        -9.5160   -7.0430  -13.2790 ha        1 307      0.175000
     67 H391      -12.7540   -6.5220  -12.0370 hc        1 307      0.071367
     68 H392      -12.5440   -8.3210  -12.0870 hc        1 307      0.071367
     69 H393      -11.8440   -7.2900  -13.4090 hc        1 307      0.071367
     70 H371      -12.6250   -8.3870   -9.7270 hc        1 307      0.065367
     71 H372      -12.8340   -6.5880   -9.6850 hc        1 307      0.065367
     72 H373      -12.0150   -7.4380   -8.3050 hc        1 307      0.065367
     73 H211       -0.9980   -4.8820   -6.3930 hn        1 307      0.447800
     74 H251       -4.0680   -4.8750   -9.7070 hn        1 307      0.439800
@<TRIPOS>BOND
     1    1    2 1   
     2    2    3 1   
     3    2    4 1   
     4    2    5 1   
     5    5    6 ar  
     6    5    7 ar  
     7    6   10 ar  
     8    6   41 1   
     9    7    8 ar  
    10    7   42 1   
    11    8    9 ar  
    12    8   43 1   
    13    9   10 ar  
    14    9   44 1   
    15   10   11 1   
    16   11   12 1   
    17   11   13 1   
    18   12   19 2   
    19   12   45 1   
    20   13   14 ar  
    21   13   17 ar  
    22   14   15 ar  
    23   14   46 1   
    24   15   16 ar  
    25   15   47 1   
    26   16   18 ar  
    27   16   48 1   
    28   17   18 ar  
    29   17   19 1   
    30   18   49 1   
    31   19   20 1   
    32   20   21 1   
    33   20   50 1   
    34   20   51 1   
    35   21   22 1   
    36   21   23 1   
    37   21   73 1   
    38   22   52 1   
    39   22   53 1   
    40   22   54 1   
    41   23   24 1   
    42   23   55 1   
    43   23   56 1   
    44   24   25 1   
    45   24   57 1   
    46   24   58 1   
    47   25   26 1   
    48   25   27 1   
    49   25   74 1   
    50   26   59 1   
    51   26   60 1   
    52   26   61 1   
    53   27   28 1   
    54   27   62 1   
    55   27   63 1   
    56   28   29 2   
    57   28   34 1   
    58   29   30 1   
    59   29   64 1   
    60   30   31 1   
    61   31   32 ar  
    62   31   36 ar  
    63   32   33 ar  
    64   32   34 1   
    65   33   39 ar  
    66   33   65 1   
    67   34   35 2   
    68   36   37 ar  
    69   36   66 1   
    70   37   38 1   
    71   37   39 ar  
    72   38   67 1   
    73   38   68 1   
    74   38   69 1   
    75   39   40 1   
    76   40   70 1   
    77   40   71 1   
    78   40   72 1   
@<TRIPOS>SUBSTRUCTURE
     1 307         1 TEMP              0 ****  ****    0 ROOT
