@<TRIPOS>MOLECULE
307
   72    76     1     0     0
SMALL
bcc


@<TRIPOS>ATOM
      1 F9         -5.5200    3.7850   -0.0380 f         1 307     -0.234967
      2 C7         -6.7910    3.2890   -0.1960 c3        1 307      0.687200
      3 F10        -7.3690    4.1320   -1.1140 f         1 307     -0.234967
      4 F8         -7.4210    3.5980    0.9860 f         1 307     -0.234967
      5 C6         -6.8550    1.8110   -0.5680 ca        1 307     -0.147300
      6 C11        -5.8570    0.9520   -0.1120 ca        1 307     -0.108000
      7 C5         -7.9190    1.3400   -1.3370 ca        1 307     -0.097000
      8 C4         -7.9760   -0.0140   -1.6600 ca        1 307     -0.114000
      9 C3         -6.9870   -0.8920   -1.2270 ca        1 307     -0.126000
     10 C1         -5.9130   -0.4210   -0.4390 ca        1 307      0.027800
     11 N2         -4.9040   -1.2880    0.0070 na        1 307     -0.020500
     12 C12        -3.5340   -0.9590    0.0670 cc        1 307     -0.073100
     13 C16        -5.0490   -2.6290    0.4130 ca        1 307     -0.033200
     14 C20        -6.1850   -3.4340    0.5730 ca        1 307     -0.142000
     15 C19        -6.0020   -4.7380    1.0120 ca        1 307     -0.113000
     16 C18        -4.7260   -5.2470    1.2990 ca        1 307     -0.151000
     17 C15        -3.7320   -3.1420    0.7250 ca        1 307     -0.084800
     18 C17        -3.5910   -4.4570    1.1630 ca        1 307     -0.086000
     19 C13        -2.7980   -2.0560    0.4940 cd        1 307     -0.134400
     20 C14        -1.3380   -2.1220    0.7360 c3        1 307      0.241000
     21 N21        -0.5460   -1.3190   -0.1950 n3        1 307     -0.739600
     22 C22        -0.6070   -1.8130   -1.5520 c3        1 307      0.148100
     23 C23         0.8150   -1.1390    0.2980 c3        1 307      0.167800
     24 C24         1.6510   -0.1890   -0.5910 c3        1 307      0.168800
     25 N25         2.9330    0.1300    0.0290 n3        1 307     -0.750600
     26 C28         2.8300    1.1790    1.0190 c3        1 307      0.153100
     27 C26         3.9760    0.3940   -0.9590 c3        1 307      0.225000
     28 C27         5.3670    0.3340   -0.4010 cc        1 307     -0.281400
     29 C29         5.7280   -0.5920    0.5150 cd        1 307      0.101100
     30 O30         6.9890   -0.7310    1.0430 os        1 307     -0.223200
     31 C31         7.9610    0.1480    0.5890 ca        1 307      0.135100
     32 C32         7.6970    1.1440   -0.3630 ca        1 307     -0.216600
     33 C35         8.7480    1.9840   -0.7580 ca        1 307     -0.046000
     34 C33         6.3460    1.2950   -0.9270 c         1 307      0.593900
     35 O34         6.0670    2.1600   -1.7710 o         1 307     -0.551100
     36 C40         9.2400   -0.0170    1.1430 ca        1 307     -0.157000
     37 C38        10.2710    0.8280    0.7370 ca        1 307     -0.023300
     38 C39        11.6260    0.6670    1.3130 c3        1 307     -0.060800
     39 C36        10.0240    1.8370   -0.2210 ca        1 307     -0.112300
     40 C37        11.1210    2.7350   -0.6510 c3        1 307     -0.050800
     41 H11        -5.0300    1.3530    0.4980 ha        1 307      0.162000
     42 H5         -8.6980    2.0350   -1.6880 ha        1 307      0.156000
     43 H4         -8.8090   -0.3950   -2.2720 ha        1 307      0.147000
     44 H3         -7.0410   -1.9560   -1.5110 ha        1 307      0.155000
     45 H12        -3.1880    0.0380   -0.2180 h4        1 307      0.184000
     46 H20        -7.1920   -3.0440    0.3720 ha        1 307      0.137000
     47 H19        -6.8800   -5.3890    1.1430 ha        1 307      0.132000
     48 H18        -4.6280   -6.2880    1.6410 ha        1 307      0.132000
     49 H17        -2.5940   -4.8560    1.3980 ha        1 307      0.135000
     50 H141       -1.0220   -3.2090    0.7160 h1        1 307      0.040700
     51 H142       -1.1430   -1.7360    1.7810 h1        1 307      0.040700
     52 H221       -1.6730   -2.0380   -1.8170 h1        1 307      0.034367
     53 H222       -0.2300   -1.0120   -2.2410 h1        1 307      0.034367
     54 H223        0.0050   -2.7420   -1.7140 h1        1 307      0.034367
     55 H231        1.3610   -2.1240    0.3790 h1        1 307      0.037200
     56 H232        0.7380   -0.7040    1.3350 h1        1 307      0.037200
     57 H241        1.0540    0.7450   -0.8020 h1        1 307      0.041700
     58 H242        1.8350   -0.7040   -1.5750 h1        1 307      0.041700
     59 H281        3.8330    1.3210    1.5000 h1        1 307      0.035367
     60 H282        2.4990    2.1640    0.5880 h1        1 307      0.035367
     61 H283        2.0920    0.8700    1.8050 h1        1 307      0.035367
     62 H261        3.9070   -0.3900   -1.7700 h1        1 307      0.056200
     63 H262        3.8370    1.4030   -1.4510 h1        1 307      0.056200
     64 H29         5.0660   -1.3510    0.9670 h4        1 307      0.194000
     65 H35         8.5380    2.7670   -1.5070 ha        1 307      0.160000
     66 H40         9.4100   -0.8080    1.8870 ha        1 307      0.154000
     67 H391       12.3660    0.4540    0.5000 hc        1 307      0.050700
     68 H392       11.9390    1.6100    1.8280 hc        1 307      0.050700
     69 H393       11.6610   -0.1700    2.0520 hc        1 307      0.050700
     70 H371       11.9560    2.1400   -1.1010 hc        1 307      0.046367
     71 H372       10.7670    3.4760   -1.4090 hc        1 307      0.046367
     72 H373       11.5300    3.2960    0.2280 hc        1 307      0.046367
@<TRIPOS>BOND
     1    1    2 1   
     2    2    3 1   
     3    2    4 1   
     4    2    5 1   
     5    5    6 ar  
     6    5    7 ar  
     7    6   10 ar  
     8    6   41 1   
     9    7    8 ar  
    10    7   42 1   
    11    8    9 ar  
    12    8   43 1   
    13    9   10 ar  
    14    9   44 1   
    15   10   11 1   
    16   11   12 1   
    17   11   13 1   
    18   12   19 2   
    19   12   45 1   
    20   13   14 ar  
    21   13   17 ar  
    22   14   15 ar  
    23   14   46 1   
    24   15   16 ar  
    25   15   47 1   
    26   16   18 ar  
    27   16   48 1   
    28   17   18 ar  
    29   17   19 1   
    30   18   49 1   
    31   19   20 1   
    32   20   21 1   
    33   20   50 1   
    34   20   51 1   
    35   21   22 1   
    36   21   23 1   
    37   22   52 1   
    38   22   53 1   
    39   22   54 1   
    40   23   24 1   
    41   23   55 1   
    42   23   56 1   
    43   24   25 1   
    44   24   57 1   
    45   24   58 1   
    46   25   26 1   
    47   25   27 1   
    48   26   59 1   
    49   26   60 1   
    50   26   61 1   
    51   27   28 1   
    52   27   62 1   
    53   27   63 1   
    54   28   29 2   
    55   28   34 1   
    56   29   30 1   
    57   29   64 1   
    58   30   31 1   
    59   31   32 ar  
    60   31   36 ar  
    61   32   33 ar  
    62   32   34 1   
    63   33   39 ar  
    64   33   65 1   
    65   34   35 2   
    66   36   37 ar  
    67   36   66 1   
    68   37   38 1   
    69   37   39 ar  
    70   38   67 1   
    71   38   68 1   
    72   38   69 1   
    73   39   40 1   
    74   40   70 1   
    75   40   71 1   
    76   40   72 1   
@<TRIPOS>SUBSTRUCTURE
     1 307         1 TEMP              0 ****  ****    0 ROOT
