@<TRIPOS>MOLECULE
308
   28    30     1     0     0
SMALL
bcc


@<TRIPOS>ATOM
      1 N1          2.6210   -0.2230   -0.1300 n3        1 308     -0.897800
      2 C10         1.1700   -0.2230   -0.1300 c3        1 308      0.177200
      3 C7          0.6060   -0.2230    1.2450 c3        1 308     -0.075733
      4 C1         -0.8800   -0.3400    1.3080 c3        1 308     -0.060700
      5 C8          0.6110    0.7510   -1.0810 c3        1 308     -0.075733
      6 C5         -0.8670    0.7230   -1.1970 c3        1 308     -0.060700
      7 C6         -1.6790    0.4550    0.1960 c3        1 308     -0.070067
      8 C4         -0.8680    0.7200   -1.2000 c3        1 308     -0.070067
      9 C9          0.8780   -0.9000   -0.4140 c3        1 308     -0.075733
     10 C3         -0.4750   -0.6930   -0.3290 c3        1 308     -0.060700
     11 C2         -0.8830   -0.3560    1.3060 c3        1 308     -0.070067
     12 HN1         2.9250   -0.8220    0.4880 hn        1 308      0.344800
     13 HN1A        2.9250    0.6110    0.0800 hn        1 308      0.344800
     14 H7          0.9950   -0.9710    1.7370 hc        1 308      0.043367
     15 H7A         0.8680    0.6080    1.6850 hc        1 308      0.043367
     16 H1         -1.1930   -0.0720    2.1930 hc        1 308      0.048033
     17 H8          0.8810    1.6460   -0.7990 hc        1 308      0.043367
     18 H8A         0.9930    0.5760   -1.9620 hc        1 308      0.043367
     19 H5         -1.1800    1.5520   -1.6060 hc        1 308      0.048033
     20 H6         -1.9410    1.3190    0.5670 hc        1 308      0.041033
     21 H6A        -2.4900   -0.0470   -0.0150 hc        1 308      0.041033
     22 H4         -1.8190    0.7250   -1.4170 hc        1 308      0.041033
     23 H4A        -0.3370    0.7670   -2.0180 hc        1 308      0.041033
     24 H9          1.1510   -1.0320   -1.3420 hc        1 308      0.043367
     25 H9A         1.1490   -1.6560    0.1410 hc        1 308      0.043367
     26 H3         -0.9720   -1.4630   -0.6650 hc        1 308      0.048033
     27 H2         -1.8350   -0.5180    1.4530 hc        1 308      0.041033
     28 H2A        -0.3520   -0.9140    1.9050 hc        1 308      0.041033
@<TRIPOS>BOND
     1    1    2 1   
     2    1   12 1   
     3    1   13 1   
     4    2    3 1   
     5    2    5 1   
     6    2    9 1   
     7    3    4 1   
     8    3   14 1   
     9    3   15 1   
    10    4    7 1   
    11    4   11 1   
    12    4   16 1   
    13    5    6 1   
    14    5   17 1   
    15    5   18 1   
    16    6    7 1   
    17    6    8 1   
    18    6   19 1   
    19    7   20 1   
    20    7   21 1   
    21    8   10 1   
    22    8   22 1   
    23    8   23 1   
    24    9   10 1   
    25    9   24 1   
    26    9   25 1   
    27   10   11 1   
    28   10   26 1   
    29   11   27 1   
    30   11   28 1   
@<TRIPOS>SUBSTRUCTURE
     1 308         1 TEMP              0 ****  ****    0 ROOT
