@<TRIPOS>MOLECULE
308
   28    30     1     0     0
SMALL
bcc


@<TRIPOS>ATOM
      1 N1          2.7240   -0.0050   -0.1010 n3        1 308     -0.897800
      2 C10         1.2620   -0.0020   -0.0300 c3        1 308      0.177200
      3 C7          0.6960   -1.2790   -0.6960 c3        1 308     -0.075733
      4 C1         -0.8260   -1.2680   -0.6610 c3        1 308     -0.060700
      5 C8          0.7340    0.0470    1.4270 c3        1 308     -0.075733
      6 C5         -0.7880    0.0480    1.4490 c3        1 308     -0.060700
      7 C6         -1.3100   -1.2200    0.7840 c3        1 308     -0.070067
      8 C4         -1.3090    1.2690    0.6990 c3        1 308     -0.070067
      9 C9          0.6960    1.2270   -0.7810 c3        1 308     -0.075733
     10 C3         -0.8260    1.2180   -0.7450 c3        1 308     -0.060700
     11 C2         -1.3480   -0.0490   -1.4130 c3        1 308     -0.070067
     12 HN1         3.0840    0.8250    0.3270 hn        1 308      0.344800
     13 HN1A        3.0840   -0.8030    0.3820 hn        1 308      0.344800
     14 H7          1.0480   -1.3340   -1.7580 hc        1 308      0.043367
     15 H7A         1.0740   -2.1860   -0.1570 hc        1 308      0.043367
     16 H1         -1.2110   -2.2020   -1.1520 hc        1 308      0.048033
     17 H8          1.1140   -0.8400    1.9950 hc        1 308      0.043367
     18 H8A         1.1140    0.9720    1.9340 hc        1 308      0.043367
     19 H5         -1.1420    0.0840    2.5140 hc        1 308      0.048033
     20 H6         -2.4290   -1.2310    0.8120 hc        1 308      0.041033
     21 H6A        -0.9410   -2.1200    1.3390 hc        1 308      0.041033
     22 H4         -2.4290    1.2820    0.7260 hc        1 308      0.041033
     23 H4A        -0.9410    2.2050    1.1920 hc        1 308      0.041033
     24 H9          1.0750    2.1680   -0.3050 hc        1 308      0.043367
     25 H9A         1.0480    1.2100   -1.8440 hc        1 308      0.043367
     26 H3         -1.2100    2.1170   -1.2990 hc        1 308      0.048033
     27 H2         -1.0060   -0.0850   -2.4790 hc        1 308      0.041033
     28 H2A        -2.4680   -0.0490   -1.4080 hc        1 308      0.041033
@<TRIPOS>BOND
     1    1    2 1   
     2    1   12 1   
     3    1   13 1   
     4    2    3 1   
     5    2    5 1   
     6    2    9 1   
     7    3    4 1   
     8    3   14 1   
     9    3   15 1   
    10    4    7 1   
    11    4   11 1   
    12    4   16 1   
    13    5    6 1   
    14    5   17 1   
    15    5   18 1   
    16    6    7 1   
    17    6    8 1   
    18    6   19 1   
    19    7   20 1   
    20    7   21 1   
    21    8   10 1   
    22    8   22 1   
    23    8   23 1   
    24    9   10 1   
    25    9   24 1   
    26    9   25 1   
    27   10   11 1   
    28   10   26 1   
    29   11   27 1   
    30   11   28 1   
@<TRIPOS>SUBSTRUCTURE
     1 308         1 TEMP              0 ****  ****    0 ROOT
