@<TRIPOS>MOLECULE
308
   29    31     1     0     0
SMALL
bcc


@<TRIPOS>ATOM
      1 N1          1.5170    0.0000   -0.0010 n4        1 308     -0.846600
      2 C10        -0.0070   -0.0000   -0.0000 c3        1 308      0.137200
      3 C7         -0.5170    0.0000    1.4540 c3        1 308     -0.091400
      4 C1         -2.0440   -0.0000    1.4380 c3        1 308     -0.057700
      5 C8         -0.5180    1.2590   -0.7280 c3        1 308     -0.091400
      6 C5         -2.0450    1.2440   -0.7190 c3        1 308     -0.057700
      7 C6         -2.5480    1.2460    0.7200 c3        1 308     -0.084400
      8 C4         -2.5480   -0.0020   -1.4390 c3        1 308     -0.084400
      9 C9         -0.5170   -1.2600   -0.7270 c3        1 308     -0.091400
     10 C3         -2.0440   -1.2460   -0.7180 c3        1 308     -0.057700
     11 C2         -2.5470   -1.2470    0.7210 c3        1 308     -0.084400
     12 HN1         1.8580    0.8350    0.4810 hn        1 308      0.453800
     13 HN1A        1.8570   -0.0000   -0.9650 hn        1 308      0.453800
     14 H7         -0.1510    0.9110    1.9950 hc        1 308      0.063700
     15 H7A        -0.1510   -0.9100    1.9960 hc        1 308      0.063700
     16 H1         -2.4120    0.0000    2.5000 hc        1 308      0.087700
     17 H8         -0.1520    2.1830   -0.2100 hc        1 308      0.063700
     18 H8A        -0.1520    1.2720   -1.7870 hc        1 308      0.063700
     19 H5         -2.4130    2.1630   -1.2500 hc        1 308      0.087700
     20 H6         -2.1940    2.1670    1.2510 hc        1 308      0.067200
     21 H6A        -3.6690    1.2570    0.7270 hc        1 308      0.067200
     22 H4         -3.6690   -0.0020   -1.4510 hc        1 308      0.067200
     23 H4A        -2.1950   -0.0020   -2.5020 hc        1 308      0.067200
     24 H9         -0.1510   -2.1840   -0.2080 hc        1 308      0.063700
     25 H9A        -0.1520   -1.2740   -1.7860 hc        1 308      0.063700
     26 H3         -2.4130   -2.1660   -1.2480 hc        1 308      0.087700
     27 H2         -3.6680   -1.2590    0.7280 hc        1 308      0.067200
     28 H2A        -2.1930   -2.1670    1.2530 hc        1 308      0.067200
     29 H13         1.8580   -0.8350    0.4810 hn        1 308      0.453800
@<TRIPOS>BOND
     1    1    2 1   
     2    1   12 1   
     3    1   13 1   
     4    1   29 1   
     5    2    3 1   
     6    2    5 1   
     7    2    9 1   
     8    3    4 1   
     9    3   14 1   
    10    3   15 1   
    11    4    7 1   
    12    4   11 1   
    13    4   16 1   
    14    5    6 1   
    15    5   17 1   
    16    5   18 1   
    17    6    7 1   
    18    6    8 1   
    19    6   19 1   
    20    7   20 1   
    21    7   21 1   
    22    8   10 1   
    23    8   22 1   
    24    8   23 1   
    25    9   10 1   
    26    9   24 1   
    27    9   25 1   
    28   10   11 1   
    29   10   26 1   
    30   11   27 1   
    31   11   28 1   
@<TRIPOS>SUBSTRUCTURE
     1 308         1 TEMP              0 ****  ****    0 ROOT
