@<TRIPOS>MOLECULE
30A
   30    32     1     0     0
SMALL
bcc


@<TRIPOS>ATOM
      1 CL          0.0440   -0.1280    0.2180 cl        1 30A     -0.178000
      2 C1          5.1790    0.1220    0.7940 cc        1 30A     -0.235800
      3 C2          5.5790    0.1650    2.2490 c         1 30A      0.935800
      4 O3          4.6890    0.2170    3.1330 o         1 30A     -0.810300
      5 C4          3.9290    0.0520    0.1470 cd        1 30A      0.379500
      6 O4          6.8250    0.1520    2.4700 o         1 30A     -0.810300
      7 N5          4.2510    0.0540   -1.2940 na        1 30A     -0.042800
      8 C6          3.2100    0.0030   -2.2100 cc        1 30A      0.240800
      9 O7          3.4430    0.0040   -3.5680 oh        1 30A     -0.505100
     10 C8          1.8870   -0.0510   -1.7690 cd        1 30A     -0.294600
     11 C9          0.7730   -0.0700   -2.7500 c3        1 30A      0.039200
     12 C10         0.3270   -1.4480   -3.1150 ca        1 30A     -0.063300
     13 C11        -0.9030   -1.9430   -2.6680 ca        1 30A     -0.121000
     14 C12        -1.3250   -3.2190   -3.0390 ca        1 30A     -0.135000
     15 C13        -0.5230   -4.0110   -3.8600 ca        1 30A     -0.140000
     16 C14         0.7060   -3.5250   -4.3060 ca        1 30A     -0.135000
     17 C15         1.1290   -2.2500   -3.9370 ca        1 30A     -0.121000
     18 C16         1.6750   -0.0580   -0.3360 cc        1 30A      0.521300
     19 N18         2.6260   -0.0110    0.5830 nd        1 30A     -0.581000
     20 N19         5.5770    0.1190   -1.5110 nd        1 30A     -0.624100
     21 C20         6.1490    0.1590   -0.2820 cc        1 30A      0.403500
     22 H20         7.2310    0.2100   -0.1300 h4        1 30A      0.070800
     23 H91C        1.1080    0.4540   -3.6900 hc        1 30A      0.058200
     24 H92C       -0.0960    0.5130   -2.3390 hc        1 30A      0.058200
     25 H11        -1.5320   -1.3260   -2.0100 ha        1 30A      0.139000
     26 H15         2.1030   -1.8620   -4.2780 ha        1 30A      0.139000
     27 H12        -2.2900   -3.6020   -2.6780 ha        1 30A      0.122500
     28 H13        -0.8550   -5.0180   -4.1490 ha        1 30A      0.120000
     29 H14         1.3450   -4.1490   -4.9470 ha        1 30A      0.122500
     30 H7          4.3890    0.1250   -3.7480 ho        1 30A      0.451000
@<TRIPOS>BOND
     1    1   18 1   
     2    2    3 1   
     3    2    5 2   
     4    2   21 1   
     5    3    4 1   
     6    3    6 1   
     7    5    7 1   
     8    5   19 1   
     9    7    8 1   
    10    7   20 1   
    11    8    9 1   
    12    8   10 2   
    13    9   30 1   
    14   10   11 1   
    15   10   18 1   
    16   11   12 1   
    17   11   23 1   
    18   11   24 1   
    19   12   13 ar  
    20   12   17 ar  
    21   13   14 ar  
    22   13   25 1   
    23   14   15 ar  
    24   14   27 1   
    25   15   16 ar  
    26   15   28 1   
    27   16   17 ar  
    28   16   29 1   
    29   17   26 1   
    30   18   19 2   
    31   20   21 2   
    32   21   22 1   
@<TRIPOS>SUBSTRUCTURE
     1 30A         1 TEMP              0 ****  ****    0 ROOT
