@<TRIPOS>MOLECULE
30A
   30    32     1     0     0
SMALL
bcc


@<TRIPOS>ATOM
      1 Cl          0.0340   -0.1410    0.2140 cl        1 30A     -0.178000
      2 C1          5.1670    0.1320    0.8030 cc        1 30A     -0.235800
      3 C2          5.5630    0.1740    2.2600 c         1 30A      0.935800
      4 O3          4.6700    0.2220    3.1420 o         1 30A     -0.810300
      5 C4          3.9190    0.0570    0.1530 cd        1 30A      0.379500
      6 O4          6.8080    0.1650    2.4840 o         1 30A     -0.810300
      7 N5          4.2440    0.0630   -1.2870 na        1 30A     -0.042800
      8 C6          3.2060    0.0090   -2.2050 cc        1 30A      0.240800
      9 O7          3.4430    0.0130   -3.5630 oh        1 30A     -0.505100
     10 C8          1.8820   -0.0520   -1.7680 cd        1 30A     -0.294600
     11 C9          0.7710   -0.0760   -2.7520 c3        1 30A      0.039200
     12 C10         0.3330   -1.4550   -3.1210 ca        1 30A     -0.063300
     13 C11        -0.8950   -1.9570   -2.6760 ca        1 30A     -0.121500
     14 C12        -1.3100   -3.2350   -3.0510 ca        1 30A     -0.135000
     15 C13        -0.5020   -4.0210   -3.8720 ca        1 30A     -0.140000
     16 C14         0.7250   -3.5270   -4.3160 ca        1 30A     -0.135000
     17 C15         1.1410   -2.2500   -3.9430 ca        1 30A     -0.121500
     18 C16         1.6670   -0.0630   -0.3350 cc        1 30A      0.521300
     19 N18         2.6150   -0.0120    0.5860 nd        1 30A     -0.581000
     20 N19         5.5700    0.1350   -1.5000 nd        1 30A     -0.624100
     21 C20         6.1390    0.1750   -0.2700 cc        1 30A      0.403500
     22 H20         7.2210    0.2310   -0.1150 h4        1 30A      0.070800
     23 H91C        1.1050    0.4520   -3.6900 hc        1 30A      0.058200
     24 H92C       -0.1020    0.5030   -2.3420 hc        1 30A      0.058200
     25 H11        -1.5290   -1.3450   -2.0180 ha        1 30A      0.139000
     26 H15         2.1130   -1.8570   -4.2820 ha        1 30A      0.139000
     27 H12        -2.2730   -3.6230   -2.6920 ha        1 30A      0.122500
     28 H13        -0.8290   -5.0290   -4.1640 ha        1 30A      0.120000
     29 H14         1.3680   -4.1470   -4.9570 ha        1 30A      0.122500
     30 H7          4.3890    0.1380   -3.7400 ho        1 30A      0.451000
@<TRIPOS>BOND
     1    1   18 1   
     2    2    3 1   
     3    2    5 2   
     4    2   21 1   
     5    3    4 1   
     6    3    6 1   
     7    5    7 1   
     8    5   19 1   
     9    7    8 1   
    10    7   20 1   
    11    8    9 1   
    12    8   10 2   
    13    9   30 1   
    14   10   11 1   
    15   10   18 1   
    16   11   12 1   
    17   11   23 1   
    18   11   24 1   
    19   12   13 ar  
    20   12   17 ar  
    21   13   14 ar  
    22   13   25 1   
    23   14   15 ar  
    24   14   27 1   
    25   15   16 ar  
    26   15   28 1   
    27   16   17 ar  
    28   16   29 1   
    29   17   26 1   
    30   18   19 2   
    31   20   21 2   
    32   21   22 1   
@<TRIPOS>SUBSTRUCTURE
     1 30A         1 TEMP              0 ****  ****    0 ROOT
