@<TRIPOS>MOLECULE
30A
   30    24     1     0     0
SMALL
bcc


@<TRIPOS>ATOM
      1 CL         -0.6840   -2.8980    1.7400 cl        1 30A     -0.020000
      2 C1          2.8270   -0.7170    3.0030 c1        1 30A     -0.121000
      3 C2          3.6860   -1.7930    3.6520 c1        1 30A      0.385000
      4 O3          3.9340   -1.7410    4.8880 o         1 30A     -0.545000
      5 C4          1.8170   -0.7890    2.0560 c1        1 30A     -0.055000
      6 O4          4.1740   -2.7200    2.9480 o         1 30A     -0.545000
      7 N5          1.9070    0.3110    1.2640 n1        1 30A     -0.111000
      8 C6          1.0190    0.4910    0.2440 c1        1 30A      0.230000
      9 O7          1.8310    1.5020   -0.3230 oh        1 30A     -0.238000
     10 C8          0.0360   -0.4390    0.0180 c1        1 30A     -0.279000
     11 C9         -0.6780   -0.9520   -1.2370 c2        1 30A     -0.068000
     12 C10        -1.7260    0.0720   -1.6830 c2        1 30A     -0.078000
     13 C11        -2.9710    0.1060   -1.0630 c2        1 30A     -0.109000
     14 C12        -3.9580    0.9660   -1.5320 c1        1 30A     -0.127000
     15 C13        -3.7000    1.7930   -2.6210 c1        1 30A     -0.134500
     16 C14        -2.4550    1.7590   -3.2400 c1        1 30A     -0.134500
     17 C15        -1.4680    0.8990   -2.7710 c1        1 30A     -0.149000
     18 C16        -0.0540   -1.5520    0.8200 c2        1 30A      0.019000
     19 N18         0.8250   -1.7280    1.8280 n1        1 30A     -0.047000
     20 N19         2.9780    1.0790    1.7140 n1        1 30A     -0.111000
     21 C20         3.5360    0.4420    2.7800 c1        1 30A     -0.055000
     22 H20         4.2960    0.7640    3.3110 DU        1 30A      0.200000
     23 H91C       -0.0210   -1.0840   -1.9560 ha        1 30A      0.100500
     24 H92C       -1.1190   -1.8070   -1.0360 ha        1 30A      0.100500
     25 H11        -3.1640   -0.5010   -0.3160 ha        1 30A      0.153000
     26 H15        -0.7430    0.9210   -3.4350 ha        1 30A      0.127000
     27 H12        -4.8400    0.9820   -1.1030 ha        1 30A      0.131000
     28 H13        -4.3970    2.3990   -2.9520 ha        1 30A      0.124000
     29 H14        -2.2770    2.3350   -4.0150 ha        1 30A      0.124000
     30 H7          1.3890    1.9010   -0.9850 ho        1 30A      0.234000
@<TRIPOS>BOND
     1    1   18 1   
     2    2    5 1   
     3    2   21 1   
     4    3    4 1   
     5    3    6 1   
     6    5    7 1   
     7    8    9 1   
     8    8   10 1   
     9    9   30 1   
    10   10   18 1   
    11   11   12 1   
    12   11   23 1   
    13   11   24 1   
    14   12   13 1   
    15   12   17 1   
    16   13   14 1   
    17   13   25 1   
    18   14   27 1   
    19   15   16 1   
    20   15   28 1   
    21   16   29 1   
    22   17   26 1   
    23   18   19 1   
    24   20   21 1   
@<TRIPOS>SUBSTRUCTURE
     1 30A         1 TEMP              0 ****  ****    0 ROOT
