@<TRIPOS>MOLECULE
30A
   30    32     1     0     0
SMALL
bcc


@<TRIPOS>ATOM
      1 CL          0.7910    2.6030    0.7400 cl        1 30A     -0.178000
      2 C1         -3.3420   -0.3370   -0.2790 cc        1 30A     -0.235800
      3 C2         -4.5370    0.4940   -0.6740 c         1 30A      0.935800
      4 O3         -4.4570    1.7470   -0.6420 o         1 30A     -0.810300
      5 C4         -2.0210   -0.0030    0.0820 cd        1 30A      0.379500
      6 O4         -5.5670   -0.1600   -1.0110 o         1 30A     -0.810300
      7 N5         -1.3670   -1.2970    0.3590 na        1 30A     -0.042800
      8 C6         -0.0380   -1.3020    0.7570 cc        1 30A      0.240800
      9 O7          0.6280   -2.4760    1.0320 oh        1 30A     -0.505100
     10 C8          0.6610   -0.1020    0.8880 cd        1 30A     -0.294600
     11 C9          2.0720   -0.1050    1.3470 c3        1 30A      0.039200
     12 C10         3.0610   -0.1400    0.2280 ca        1 30A     -0.063300
     13 C11         3.8310    0.9870   -0.0800 ca        1 30A     -0.121000
     14 C12         4.7730    0.9370   -1.1060 ca        1 30A     -0.135000
     15 C13         4.9550   -0.2390   -1.8340 ca        1 30A     -0.140000
     16 C14         4.1880   -1.3650   -1.5340 ca        1 30A     -0.135000
     17 C15         3.2460   -1.3170   -0.5080 ca        1 30A     -0.121000
     18 C16        -0.0650    1.1150    0.5840 cc        1 30A      0.521300
     19 N18        -1.3300    1.1810    0.2020 nd        1 30A     -0.581000
     20 N19        -2.2100   -2.3310    0.1840 nd        1 30A     -0.624100
     21 C20        -3.3900   -1.7830   -0.1980 cc        1 30A      0.403500
     22 H20        -4.2800   -2.3800   -0.4210 h4        1 30A      0.070800
     23 H91C        2.2580    0.7980    1.9900 hc        1 30A      0.058200
     24 H92C        2.2410   -1.0120    1.9950 hc        1 30A      0.058200
     25 H11         3.6810    1.9210    0.4830 ha        1 30A      0.139000
     26 H15         2.6300   -2.2000   -0.2720 ha        1 30A      0.139000
     27 H12         5.3690    1.8290   -1.3450 ha        1 30A      0.122500
     28 H13         5.6950   -0.2760   -2.6450 ha        1 30A      0.120000
     29 H14         4.3220   -2.2910   -2.1110 ha        1 30A      0.122500
     30 H7          0.0180   -3.2300    0.9840 ho        1 30A      0.451000
@<TRIPOS>BOND
     1    1   18 1   
     2    2    3 1   
     3    2    5 2   
     4    2   21 1   
     5    3    4 1   
     6    3    6 1   
     7    5    7 1   
     8    5   19 1   
     9    7    8 1   
    10    7   20 1   
    11    8    9 1   
    12    8   10 2   
    13    9   30 1   
    14   10   11 1   
    15   10   18 1   
    16   11   12 1   
    17   11   23 1   
    18   11   24 1   
    19   12   13 ar  
    20   12   17 ar  
    21   13   14 ar  
    22   13   25 1   
    23   14   15 ar  
    24   14   27 1   
    25   15   16 ar  
    26   15   28 1   
    27   16   17 ar  
    28   16   29 1   
    29   17   26 1   
    30   18   19 2   
    31   20   21 2   
    32   21   22 1   
@<TRIPOS>SUBSTRUCTURE
     1 30A         1 TEMP              0 ****  ****    0 ROOT
