@<TRIPOS>MOLECULE
30E
   57    53     1     0     0
SMALL
bcc


@<TRIPOS>ATOM
      1 C01        -2.5020    4.0180   -4.1020 c3        1 30E     -0.208000
      2 C02        -1.2780    3.0830   -3.9710 c3        1 30E     -0.170000
      3 C03        -0.8100    3.0450   -2.5200 c3        1 30E     -0.073000
      4 C04        -1.0200    1.6360   -1.9750 c3        1 30E     -0.065000
      5 N05        -0.1490    0.6600   -2.5880 n3        1 30E     -0.221000
      6 C06        -0.3310   -0.6380   -1.9380 c2        1 30E      0.006000
      7 N07        -0.0260   -0.7900   -0.6190 n1        1 30E     -0.110000
      8 C08        -0.1660   -1.9910   -0.0300 c1        1 30E     -0.038500
      9 C09         0.0780   -2.1300    1.3600 c1        1 30E     -0.038500
     10 C10        -0.9700   -2.0480    2.2600 c1        1 30E     -0.116000
     11 C11        -0.7270   -2.1940    3.6330 c1        1 30E      0.030000
     12 O12        -1.8290   -2.2300    4.5540 os        1 30E     -0.230000
     13 C13        -2.2070   -0.9380    5.0620 c3        1 30E     -0.070000
     14 C14         0.5740   -2.4220    4.0910 c1        1 30E      0.013000
     15 O15         0.8250   -2.5890    5.5090 o         1 30E     -0.222000
     16 C16         0.6910   -3.9600    5.9810 c3        1 30E     -0.071000
     17 C17         1.6200   -2.5040    3.1900 c2        1 30E      0.047000
     18 O18         2.9460   -2.7740    3.6570 os        1 30E     -0.223000
     19 C19         3.6930   -1.6100    3.9860 c3        1 30E     -0.074000
     20 C20         1.3760   -2.3580    1.8190 c1        1 30E     -0.107000
     21 C21        -0.6280   -3.0870   -0.7750 c1        1 30E     -0.116000
     22 N22        -0.9250   -2.9370   -2.0580 n1        1 30E     -0.202000
     23 C23        -0.7790   -1.7030   -2.6610 c2        1 30E      0.104000
     24 N24        -1.1110   -1.5370   -4.0430 n3        1 30E     -0.329000
     25 C25         1.2680    1.0320   -2.5610 c3        1 30E     -0.059000
     26 C26         1.5270    2.4310   -3.1140 c3        1 30E     -0.140000
     27 C27         0.6650    3.4980   -2.4630 c3        1 30E     -0.176000
     28 C28         0.8880    4.9350   -3.1200 c2        1 30E      0.335000
     29 O29         1.6260    5.0560   -4.1510 o         1 30E     -0.576000
     30 O30         0.3700    5.9760   -2.5780 o         1 30E     -0.576000
     31 H011       -3.3240    3.4900   -4.0380 hc        1 30E      0.057000
     32 H012       -2.4730    4.4760   -4.9770 hc        1 30E      0.057000
     33 H013       -2.4850    4.6820   -3.3870 hc        1 30E      0.057000
     34 H021       -1.5310    2.1690   -4.2590 hc        1 30E      0.106500
     35 H022       -0.5710    3.4060   -4.5230 hc        1 30E      0.106500
     36 H03        -1.3410    3.6550   -2.0080 hc        1 30E      0.095000
     37 H041       -1.9670    1.3650   -2.1380 h1        1 30E      0.068500
     38 H042       -0.8510    1.6430   -0.9810 h1        1 30E      0.068500
     39 H27         0.9460    3.6630   -1.5430 hc        1 30E      0.076000
     40 H251        1.5980    0.9890   -1.6110 h1        1 30E      0.067000
     41 H252        1.7780    0.3760   -3.1080 h1        1 30E      0.067000
     42 H21        -0.7270   -3.9380   -0.3580 ha        1 30E      0.152000
     43 H10        -1.9030   -1.8170    1.9320 ha        1 30E      0.152000
     44 H20         2.1110   -2.4020    1.1880 ha        1 30E      0.171000
     45 H131       -1.4150   -0.4610    5.3480 h1        1 30E      0.079000
     46 H132       -2.8320   -1.0540    5.8480 h1        1 30E      0.079000
     47 H133       -2.6640   -0.4240    4.3520 h1        1 30E      0.079000
     48 H161       -0.0630   -4.0170    6.6100 h1        1 30E      0.081333
     49 H162        0.5200   -4.5770    5.1900 h1        1 30E      0.081333
     50 H163        1.5400   -4.2390    6.4480 h1        1 30E      0.081333
     51 H191        3.3040   -0.8290    3.5300 h1        1 30E      0.083000
     52 H192        4.6380   -1.7290    3.6930 h1        1 30E      0.083000
     53 H193        3.6640   -1.4610    4.9970 h1        1 30E      0.083000
     54 H241       -1.0230   -0.7250   -4.4350 hn        1 30E      0.227500
     55 H242       -1.4330   -2.2500   -4.5300 hn        1 30E      0.227500
     56 H261        2.4710    2.6570   -2.9660 hc        1 30E      0.094500
     57 H262        1.3440    2.4270   -4.1100 hc        1 30E      0.094500
@<TRIPOS>BOND
     1    1    2 1   
     2    1   31 1   
     3    1   32 1   
     4    1   33 1   
     5    2    3 1   
     6    2   34 1   
     7    2   35 1   
     8    3    4 1   
     9    3   27 1   
    10    3   36 1   
    11    4    5 1   
    12    4   37 1   
    13    4   38 1   
    14    5    6 1   
    15    5   25 1   
    16    6    7 1   
    17    6   23 1   
    18    8   21 1   
    19    9   10 1   
    20   10   43 1   
    21   11   12 1   
    22   11   14 1   
    23   12   13 1   
    24   13   45 1   
    25   13   46 1   
    26   13   47 1   
    27   14   17 1   
    28   15   16 1   
    29   16   48 1   
    30   16   49 1   
    31   16   50 1   
    32   17   18 1   
    33   17   20 1   
    34   18   19 1   
    35   19   51 1   
    36   19   52 1   
    37   19   53 1   
    38   20   44 1   
    39   21   42 1   
    40   22   23 1   
    41   23   24 1   
    42   24   54 1   
    43   24   55 1   
    44   25   26 1   
    45   25   40 1   
    46   25   41 1   
    47   26   27 1   
    48   26   56 1   
    49   26   57 1   
    50   27   28 1   
    51   27   39 1   
    52   28   29 1   
    53   28   30 1   
@<TRIPOS>SUBSTRUCTURE
     1 30E         1 TEMP              0 ****  ****    0 ROOT
