@<TRIPOS>MOLECULE
30E
   57    59     1     0     0
SMALL
bcc


@<TRIPOS>ATOM
      1 C01         0.3310    0.1950   -0.8170 c3        1 30E     -0.089100
      2 C02         1.7740   -0.1460   -0.5420 c3        1 30E     -0.091400
      3 C03         2.1570    0.0600    0.9140 c3        1 30E     -0.033700
      4 C04         1.5790   -1.0420    1.8190 c3        1 30E      0.171800
      5 N05         2.2140   -2.3390    1.5910 nh        1 30E     -0.730300
      6 C06         1.5530   -3.4170    2.2590 ca        1 30E      0.459900
      7 N07         1.9650   -3.8930    3.4500 nb        1 30E     -0.637000
      8 C08         1.3380   -4.9890    3.9630 cp        1 30E      0.277500
      9 C09         1.7710   -5.5280    5.2610 cp        1 30E     -0.049500
     10 C10         1.7690   -6.9150    5.4620 ca        1 30E     -0.211000
     11 C11         2.1610   -7.4380    6.6980 ca        1 30E      0.132100
     12 O12         2.2130   -8.7890    6.9880 os        1 30E     -0.318400
     13 C13         1.7280   -9.6620    5.9750 c3        1 30E      0.111700
     14 C14         2.5460   -6.5830    7.7530 ca        1 30E      0.032100
     15 O15         2.7950   -7.1180    9.0040 os        1 30E     -0.313900
     16 C16         4.1760   -7.0930    9.3690 c3        1 30E      0.115700
     17 C17         2.5660   -5.1910    7.5220 ca        1 30E      0.132100
     18 O18         2.9960   -4.4230    8.5870 os        1 30E     -0.318400
     19 C19         3.0380   -3.0160    8.3670 c3        1 30E      0.111700
     20 C20         2.1760   -4.6660    6.2850 ca        1 30E     -0.211000
     21 C21         0.2770   -5.6070    3.2630 ca        1 30E      0.322900
     22 N22        -0.1790   -5.1660    2.0790 nb        1 30E     -0.729000
     23 C23         0.4200   -4.0560    1.5490 ca        1 30E      0.560900
     24 N24        -0.0890   -3.5030    0.3870 nv        1 30E     -0.932500
     25 C25         3.6660   -2.2990    1.7500 c3        1 30E      0.177800
     26 C26         4.3080   -1.2150    0.8830 c3        1 30E     -0.061400
     27 C27         3.6670    0.1360    1.1230 c3        1 30E     -0.186700
     28 C28         4.3090    1.2310    0.2340 c         1 30E      0.915600
     29 O29         4.4080    2.3880    0.7320 o         1 30E     -0.840800
     30 O30         4.6990    0.9230   -0.9280 o         1 30E     -0.840800
     31 H011        0.1080    1.2440   -0.5040 hc        1 30E      0.017700
     32 H012       -0.3600   -0.4890   -0.2670 hc        1 30E      0.017700
     33 H013        0.1160    0.1030   -1.9090 hc        1 30E      0.017700
     34 H021        2.4440    0.5020   -1.1760 hc        1 30E      0.067200
     35 H022        1.9730   -1.2070   -0.8470 hc        1 30E      0.067200
     36 H03         1.7140    1.0360    1.2620 hc        1 30E      0.055700
     37 H041        0.4760   -1.1460    1.6250 h1        1 30E      0.027700
     38 H042        1.7090   -0.7190    2.8930 h1        1 30E      0.027700
     39 H27         3.8450    0.4370    2.1920 hc        1 30E      0.035700
     40 H251        4.0670   -3.3080    1.4520 h1        1 30E      0.027700
     41 H252        3.9580   -2.1150    2.8250 h1        1 30E      0.027700
     42 H21        -0.2380   -6.4950    3.6690 h4        1 30E      0.021100
     43 H10         1.4770   -7.5820    4.6400 ha        1 30E      0.151500
     44 H20         2.1920   -3.5810    6.1070 ha        1 30E      0.151500
     45 H131        1.8160  -10.6750    6.4440 h1        1 30E      0.045033
     46 H132        2.3650   -9.5970    5.0600 h1        1 30E      0.045033
     47 H133        0.6630   -9.4340    5.7280 h1        1 30E      0.045033
     48 H161        4.7760   -7.7160    8.6620 h1        1 30E      0.038033
     49 H162        4.1850   -7.5370   10.3950 h1        1 30E      0.038033
     50 H163        4.5550   -6.0430    9.3850 h1        1 30E      0.038033
     51 H191        2.0160   -2.6210    8.1510 h1        1 30E      0.045033
     52 H192        3.4180   -2.6150    9.3400 h1        1 30E      0.045033
     53 H193        3.7410   -2.7670    7.5350 h1        1 30E      0.045033
     54 H241       -0.6840   -4.0680   -0.1710 hn        1 30E      0.432300
     55 H242        0.4960   -2.8580   -0.0980 hn        1 30E      0.432300
     56 H261        5.3970   -1.1670    1.1360 hc        1 30E      0.055200
     57 H262        4.2240   -1.4700   -0.2060 hc        1 30E      0.055200
@<TRIPOS>BOND
     1    1    2 1   
     2    1   31 1   
     3    1   32 1   
     4    1   33 1   
     5    2    3 1   
     6    2   34 1   
     7    2   35 1   
     8    3    4 1   
     9    3   27 1   
    10    3   36 1   
    11    4    5 1   
    12    4   37 1   
    13    4   38 1   
    14    5    6 1   
    15    5   25 1   
    16    6    7 ar  
    17    6   23 ar  
    18    7    8 ar  
    19    8    9 1   
    20    8   21 ar  
    21    9   10 ar  
    22    9   20 ar  
    23   10   11 ar  
    24   10   43 1   
    25   11   12 1   
    26   11   14 ar  
    27   12   13 1   
    28   13   45 1   
    29   13   46 1   
    30   13   47 1   
    31   14   15 1   
    32   14   17 ar  
    33   15   16 1   
    34   16   48 1   
    35   16   49 1   
    36   16   50 1   
    37   17   18 1   
    38   17   20 ar  
    39   18   19 1   
    40   19   51 1   
    41   19   52 1   
    42   19   53 1   
    43   20   44 1   
    44   21   22 ar  
    45   21   42 1   
    46   22   23 ar  
    47   23   24 1   
    48   24   54 1   
    49   24   55 1   
    50   25   26 1   
    51   25   40 1   
    52   25   41 1   
    53   26   27 1   
    54   26   56 1   
    55   26   57 1   
    56   27   28 1   
    57   27   39 1   
    58   28   29 1   
    59   28   30 1   
@<TRIPOS>SUBSTRUCTURE
     1 30E         1 TEMP              0 ****  ****    0 ROOT
