@<TRIPOS>MOLECULE
30E
   57    59     1     0     0
SMALL
bcc


@<TRIPOS>ATOM
      1 C01        -5.7140   -1.7540    1.6110 c3        1 30E     -0.089100
      2 C02        -5.3590   -0.9750    0.3700 c3        1 30E     -0.091400
      3 C03        -4.5030    0.2450    0.6690 c3        1 30E     -0.033700
      4 C04        -3.0530   -0.1420    1.0080 c3        1 30E      0.171800
      5 N05        -2.3290   -0.6580   -0.1530 nh        1 30E     -0.730300
      6 C06        -1.0580   -1.2240    0.1810 ca        1 30E      0.459900
      7 N07         0.0940   -0.5330    0.0690 nb        1 30E     -0.637000
      8 C08         1.2660   -1.1840    0.3090 cp        1 30E      0.277500
      9 C09         2.5370   -0.4530    0.1920 cp        1 30E     -0.049500
     10 C10         3.6610   -1.1110   -0.3230 ca        1 30E     -0.211000
     11 C11         4.8800   -0.4310   -0.4210 ca        1 30E      0.132100
     12 O12         6.0380   -0.9840   -0.9340 os        1 30E     -0.318400
     13 C13         5.9730   -2.3650   -1.2710 c3        1 30E      0.111700
     14 C14         4.9930    0.9090    0.0050 ca        1 30E      0.032100
     15 O15         6.2370    1.5120    0.0260 os        1 30E     -0.313900
     16 C16         6.3990    2.5180   -0.9760 c3        1 30E      0.115700
     17 C17         3.8430    1.5620    0.4970 ca        1 30E      0.132100
     18 O18         4.0220    2.8850    0.8540 os        1 30E     -0.318400
     19 C19         2.8670    3.5650    1.3370 c3        1 30E      0.111700
     20 C20         2.6220    0.8840    0.5940 ca        1 30E     -0.211000
     21 C21         1.2720   -2.5510    0.6720 ca        1 30E      0.322900
     22 N22         0.1520   -3.2810    0.8080 nb        1 30E     -0.729000
     23 C23        -1.0410   -2.6470    0.5900 ca        1 30E      0.560900
     24 N24        -2.2210   -3.3300    0.8250 nh        1 30E     -0.932500
     25 C25        -2.3260    0.2690   -1.2810 c3        1 30E      0.177800
     26 C26        -3.7410    0.7060   -1.6670 c3        1 30E     -0.061400
     27 C27        -4.4950    1.2550   -0.4750 c3        1 30E     -0.186700
     28 C28        -5.9320    1.6840   -0.8640 c         1 30E      0.915600
     29 O29        -6.4080    2.6940   -0.2740 o         1 30E     -0.840800
     30 O30        -6.5520    1.0170   -1.7410 o         1 30E     -0.840800
     31 H011       -6.2250   -1.0970    2.3560 hc        1 30E      0.017700
     32 H012       -6.4040   -2.5940    1.3540 hc        1 30E      0.017700
     33 H013       -4.8030   -2.1870    2.0940 hc        1 30E      0.017700
     34 H021       -4.8320   -1.6470   -0.3560 hc        1 30E      0.067200
     35 H022       -6.3010   -0.6250   -0.1410 hc        1 30E      0.067200
     36 H03        -4.9260    0.7600    1.5780 hc        1 30E      0.055700
     37 H041       -2.5350    0.7690    1.4280 h1        1 30E      0.027700
     38 H042       -3.0540   -0.9330    1.8080 h1        1 30E      0.027700
     39 H27        -3.9660    2.1780   -0.1060 hc        1 30E      0.035700
     40 H251       -1.7180    1.1930   -1.0540 h1        1 30E      0.027700
     41 H252       -1.8430   -0.2570   -2.1500 h1        1 30E      0.027700
     42 H21         2.2160   -3.0880    0.8690 h4        1 30E      0.021100
     43 H10         3.5730   -2.1510   -0.6630 ha        1 30E      0.151500
     44 H20         1.7270    1.3940    0.9780 ha        1 30E      0.151500
     45 H131        7.0160   -2.5980   -1.6040 h1        1 30E      0.045033
     46 H132        5.6970   -2.9800   -0.3810 h1        1 30E      0.045033
     47 H133        5.2470   -2.5340   -2.1040 h1        1 30E      0.045033
     48 H161        6.3100    2.0690   -1.9940 h1        1 30E      0.038033
     49 H162        5.6440    3.3290   -0.8380 h1        1 30E      0.038033
     50 H163        7.4340    2.9010   -0.7990 h1        1 30E      0.038033
     51 H191        2.0660    3.5870    0.5580 h1        1 30E      0.045033
     52 H192        2.4920    3.0870    2.2740 h1        1 30E      0.045033
     53 H193        3.2460    4.5980    1.5450 h1        1 30E      0.045033
     54 H241       -3.0520   -2.9390    0.4390 hn        1 30E      0.432300
     55 H242       -2.1790   -4.3210    0.8760 hn        1 30E      0.432300
     56 H261       -3.6580    1.4940   -2.4580 hc        1 30E      0.055200
     57 H262       -4.3200   -0.1500   -2.1020 hc        1 30E      0.055200
@<TRIPOS>BOND
     1    1    2 1   
     2    1   31 1   
     3    1   32 1   
     4    1   33 1   
     5    2    3 1   
     6    2   34 1   
     7    2   35 1   
     8    3    4 1   
     9    3   27 1   
    10    3   36 1   
    11    4    5 1   
    12    4   37 1   
    13    4   38 1   
    14    5    6 1   
    15    5   25 1   
    16    6    7 ar  
    17    6   23 ar  
    18    7    8 ar  
    19    8    9 1   
    20    8   21 ar  
    21    9   10 ar  
    22    9   20 ar  
    23   10   11 ar  
    24   10   43 1   
    25   11   12 1   
    26   11   14 ar  
    27   12   13 1   
    28   13   45 1   
    29   13   46 1   
    30   13   47 1   
    31   14   15 1   
    32   14   17 ar  
    33   15   16 1   
    34   16   48 1   
    35   16   49 1   
    36   16   50 1   
    37   17   18 1   
    38   17   20 ar  
    39   18   19 1   
    40   19   51 1   
    41   19   52 1   
    42   19   53 1   
    43   20   44 1   
    44   21   22 ar  
    45   21   42 1   
    46   22   23 ar  
    47   23   24 1   
    48   24   54 1   
    49   24   55 1   
    50   25   26 1   
    51   25   40 1   
    52   25   41 1   
    53   26   27 1   
    54   26   56 1   
    55   26   57 1   
    56   27   28 1   
    57   27   39 1   
    58   28   29 1   
    59   28   30 1   
@<TRIPOS>SUBSTRUCTURE
     1 30E         1 TEMP              0 ****  ****    0 ROOT
