@<TRIPOS>MOLECULE
30E
   58    60     1     0     0
SMALL
bcc


@<TRIPOS>ATOM
      1 C01         0.0840   -0.0700   -0.7610 c3        1 30E     -0.103100
      2 C02         1.5540   -0.3500   -0.5810 c3        1 30E     -0.105400
      3 C03         2.0750    0.0800    0.7800 c3        1 30E     -0.034700
      4 C04         1.6300   -0.8850    1.8920 c3        1 30E      0.179800
      5 N05         2.3270   -2.1690    1.7930 nh        1 30E     -0.773300
      6 C06         1.6880   -3.2600    2.4040 ca        1 30E      0.612900
      7 N07         2.0980   -3.8140    3.5920 nb        1 30E     -0.656000
      8 C08         1.4370   -4.8890    4.0580 cp        1 30E      0.454500
      9 C09         1.8380   -5.5150    5.3260 cp        1 30E     -0.131500
     10 C10         1.7470   -6.9070    5.4540 ca        1 30E     -0.187500
     11 C11         2.1150   -7.5140    6.6590 ca        1 30E      0.131600
     12 O12         2.0910   -8.8720    6.8860 os        1 30E     -0.305400
     13 C13         1.5610   -9.6790    5.8390 c3        1 30E      0.107700
     14 C14         2.5550   -6.7330    7.7540 ca        1 30E      0.080100
     15 O15         2.7560   -7.3550    8.9670 os        1 30E     -0.307900
     16 C16         4.1130   -7.3400    9.4220 c3        1 30E      0.113700
     17 C17         2.6560   -5.3340    7.5950 ca        1 30E      0.131600
     18 O18         3.1230   -4.6460    8.6940 os        1 30E     -0.305400
     19 C19         3.2350   -3.2310    8.5580 c3        1 30E      0.107700
     20 C20         2.3030   -4.7270    6.3820 ca        1 30E     -0.187500
     21 C21         0.3120   -5.4420    3.3400 ca        1 30E      0.276900
     22 N22        -0.0950   -4.9560    2.1710 nb        1 30E     -0.606000
     23 C23         0.5990   -3.8860    1.6810 ca        1 30E      0.250900
     24 N24         0.2420   -3.3890    0.3460 n4        1 30E     -0.796300
     25 C25         3.7760   -2.0390    1.9260 c3        1 30E      0.184800
     26 C26         4.3170   -1.0900    0.8530 c3        1 30E     -0.066400
     27 C27         3.5910    0.2370    0.8350 c3        1 30E     -0.205700
     28 C28         4.0950    1.1010   -0.3640 c         1 30E      0.919600
     29 O29         4.3010    0.5120   -1.4630 o         1 30E     -0.817300
     30 O30         4.2420    2.3300   -0.1500 o         1 30E     -0.817300
     31 H011       -0.2760   -0.4800   -1.7350 hc        1 30E      0.023033
     32 H012       -0.0960    1.0340   -0.7620 hc        1 30E      0.023033
     33 H013       -0.5400   -0.5080    0.0590 hc        1 30E      0.023033
     34 H021        2.1360    0.2120   -1.3740 hc        1 30E      0.069700
     35 H022        1.7740   -1.4340   -0.7620 hc        1 30E      0.069700
     36 H03         1.6230    1.0850    1.0220 hc        1 30E      0.075700
     37 H041        1.8570   -0.4060    2.8900 h1        1 30E      0.031200
     38 H042        0.5180   -1.0540    1.8500 h1        1 30E      0.031200
     39 H27         3.8370    0.8010    1.7760 hc        1 30E      0.049700
     40 H251        4.0490   -1.6510    2.9480 h1        1 30E      0.044200
     41 H252        4.2360   -3.0580    1.8030 h1        1 30E      0.044200
     42 H21        -0.2580   -6.2960    3.7490 h4        1 30E      0.061100
     43 H10         1.4120   -7.5200    4.6060 ha        1 30E      0.151500
     44 H20         2.3860   -3.6360    6.2630 ha        1 30E      0.151500
     45 H131        0.5070   -9.3910    5.6100 h1        1 30E      0.050533
     46 H132        1.6030  -10.7120    6.2700 h1        1 30E      0.050533
     47 H133        2.1990   -9.6070    4.9250 h1        1 30E      0.050533
     48 H161        4.7690   -7.8810    8.6990 h1        1 30E      0.048367
     49 H162        4.4650   -6.2900    9.5660 h1        1 30E      0.048367
     50 H163        4.0600   -7.8830   10.3990 h1        1 30E      0.048367
     51 H191        3.6250   -2.9120    9.5590 h1        1 30E      0.050533
     52 H192        3.9590   -2.9680    7.7500 h1        1 30E      0.050533
     53 H193        2.2360   -2.7740    8.3600 h1        1 30E      0.050533
     54 H241        1.0810   -3.4510   -0.2510 hn        1 30E      0.472467
     55 H242       -0.0290   -2.3940    0.4060 hn        1 30E      0.472467
     56 H261        4.2420   -1.5580   -0.1650 hc        1 30E      0.070200
     57 H262        5.4040   -0.9180    1.0650 hc        1 30E      0.070200
     58 H243       -0.5210   -3.9350   -0.0650 hn        1 30E      0.472467
@<TRIPOS>BOND
     1    1    2 1   
     2    1   31 1   
     3    1   32 1   
     4    1   33 1   
     5    2    3 1   
     6    2   34 1   
     7    2   35 1   
     8    3    4 1   
     9    3   27 1   
    10    3   36 1   
    11    4    5 1   
    12    4   37 1   
    13    4   38 1   
    14    5    6 1   
    15    5   25 1   
    16    6    7 ar  
    17    6   23 ar  
    18    7    8 ar  
    19    8    9 1   
    20    8   21 ar  
    21    9   10 ar  
    22    9   20 ar  
    23   10   11 ar  
    24   10   43 1   
    25   11   12 1   
    26   11   14 ar  
    27   12   13 1   
    28   13   45 1   
    29   13   46 1   
    30   13   47 1   
    31   14   15 1   
    32   14   17 ar  
    33   15   16 1   
    34   16   48 1   
    35   16   49 1   
    36   16   50 1   
    37   17   18 1   
    38   17   20 ar  
    39   18   19 1   
    40   19   51 1   
    41   19   52 1   
    42   19   53 1   
    43   20   44 1   
    44   21   22 ar  
    45   21   42 1   
    46   22   23 ar  
    47   23   24 1   
    48   24   54 1   
    49   24   55 1   
    50   24   58 1   
    51   25   26 1   
    52   25   40 1   
    53   25   41 1   
    54   26   27 1   
    55   26   56 1   
    56   26   57 1   
    57   27   28 1   
    58   27   39 1   
    59   28   29 1   
    60   28   30 1   
@<TRIPOS>SUBSTRUCTURE
     1 30E         1 TEMP              0 ****  ****    0 ROOT
