@<TRIPOS>MOLECULE
30E
   57    59     1     0     0
SMALL
bcc


@<TRIPOS>ATOM
      1 C01         0.3290    0.1860   -0.8240 c3        1 30E     -0.089100
      2 C02         1.7720   -0.1490   -0.5450 c3        1 30E     -0.091400
      3 C03         2.1490    0.0590    0.9130 c3        1 30E     -0.033700
      4 C04         1.5730   -1.0460    1.8160 c3        1 30E      0.171800
      5 N05         2.2150   -2.3410    1.5900 nh        1 30E     -0.730300
      6 C06         1.5570   -3.4210    2.2570 ca        1 30E      0.459900
      7 N07         1.9680   -3.8950    3.4500 nb        1 30E     -0.637000
      8 C08         1.3450   -4.9940    3.9610 cp        1 30E      0.277500
      9 C09         1.7760   -5.5310    5.2590 cp        1 30E     -0.049500
     10 C10         1.7810   -6.9170    5.4610 ca        1 30E     -0.211000
     11 C11         2.1710   -7.4390    6.6980 ca        1 30E      0.132100
     12 O12         2.2300   -8.7890    6.9880 os        1 30E     -0.318400
     13 C13         1.7550   -9.6650    5.9730 c3        1 30E      0.111700
     14 C14         2.5490   -6.5820    7.7540 ca        1 30E      0.032100
     15 O15         2.7960   -7.1150    9.0060 os        1 30E     -0.313900
     16 C16         4.1750   -7.0830    9.3760 c3        1 30E      0.115700
     17 C17         2.5610   -5.1900    7.5240 ca        1 30E      0.132100
     18 O18         2.9840   -4.4200    8.5900 os        1 30E     -0.318400
     19 C19         3.0180   -3.0120    8.3700 c3        1 30E      0.111700
     20 C20         2.1730   -4.6670    6.2850 ca        1 30E     -0.211000
     21 C21         0.2880   -5.6180    3.2570 ca        1 30E      0.322900
     22 N22        -0.1660   -5.1790    2.0710 nb        1 30E     -0.729000
     23 C23         0.4300   -4.0660    1.5430 ca        1 30E      0.560900
     24 N24        -0.0780   -3.5160    0.3800 nh        1 30E     -0.932500
     25 C25         3.6660   -2.2930    1.7550 c3        1 30E      0.177800
     26 C26         4.3050   -1.2060    0.8890 c3        1 30E     -0.061400
     27 C27         3.6570    0.1410    1.1270 c3        1 30E     -0.186700
     28 C28         4.2970    1.2400    0.2400 c         1 30E      0.915600
     29 O29         4.3880    2.3970    0.7380 o         1 30E     -0.840800
     30 O30         4.6930    0.9340   -0.9200 o         1 30E     -0.840800
     31 H011        0.1010    1.2350   -0.5130 hc        1 30E      0.017700
     32 H012       -0.3620   -0.5000   -0.2760 hc        1 30E      0.017700
     33 H013        0.1170    0.0930   -1.9170 hc        1 30E      0.017700
     34 H021        2.4420    0.5010   -1.1760 hc        1 30E      0.067200
     35 H022        1.9760   -1.2090   -0.8480 hc        1 30E      0.067200
     36 H03         1.7000    1.0320    1.2600 hc        1 30E      0.055700
     37 H041        0.4710   -1.1560    1.6190 h1        1 30E      0.027700
     38 H042        1.6980   -0.7220    2.8910 h1        1 30E      0.027700
     39 H27         3.8300    0.4440    2.1970 hc        1 30E      0.035700
     40 H251        3.9530   -2.1080    2.8300 h1        1 30E      0.027700
     41 H252        4.0730   -3.3000    1.4580 h1        1 30E      0.027700
     42 H21        -0.2230   -6.5080    3.6610 h4        1 30E      0.021100
     43 H10         1.4960   -7.5860    4.6370 ha        1 30E      0.151500
     44 H20         2.1830   -3.5810    6.1070 ha        1 30E      0.151500
     45 H131        2.3960   -9.5960    5.0600 h1        1 30E      0.045033
     46 H132        0.6900   -9.4440    5.7210 h1        1 30E      0.045033
     47 H133        1.8470  -10.6780    6.4420 h1        1 30E      0.045033
     48 H161        4.5490   -6.0310    9.3920 h1        1 30E      0.038033
     49 H162        4.1830   -7.5270   10.4020 h1        1 30E      0.038033
     50 H163        4.7800   -7.7030    8.6710 h1        1 30E      0.038033
     51 H191        3.7220   -2.7580    7.5410 h1        1 30E      0.045033
     52 H192        3.3920   -2.6090    9.3450 h1        1 30E      0.045033
     53 H193        1.9940   -2.6230    8.1500 h1        1 30E      0.045033
     54 H241        0.5050   -2.8680   -0.1040 hn        1 30E      0.432300
     55 H242       -0.6690   -4.0840   -0.1800 hn        1 30E      0.432300
     56 H261        5.3940   -1.1530    1.1460 hc        1 30E      0.055200
     57 H262        4.2270   -1.4620   -0.2000 hc        1 30E      0.055200
@<TRIPOS>BOND
     1    1    2 1   
     2    1   31 1   
     3    1   32 1   
     4    1   33 1   
     5    2    3 1   
     6    2   34 1   
     7    2   35 1   
     8    3    4 1   
     9    3   27 1   
    10    3   36 1   
    11    4    5 1   
    12    4   37 1   
    13    4   38 1   
    14    5    6 1   
    15    5   25 1   
    16    6    7 ar  
    17    6   23 ar  
    18    7    8 ar  
    19    8    9 1   
    20    8   21 ar  
    21    9   10 ar  
    22    9   20 ar  
    23   10   11 ar  
    24   10   43 1   
    25   11   12 1   
    26   11   14 ar  
    27   12   13 1   
    28   13   45 1   
    29   13   46 1   
    30   13   47 1   
    31   14   15 1   
    32   14   17 ar  
    33   15   16 1   
    34   16   48 1   
    35   16   49 1   
    36   16   50 1   
    37   17   18 1   
    38   17   20 ar  
    39   18   19 1   
    40   19   51 1   
    41   19   52 1   
    42   19   53 1   
    43   20   44 1   
    44   21   22 ar  
    45   21   42 1   
    46   22   23 ar  
    47   23   24 1   
    48   24   54 1   
    49   24   55 1   
    50   25   26 1   
    51   25   40 1   
    52   25   41 1   
    53   26   27 1   
    54   26   56 1   
    55   26   57 1   
    56   27   28 1   
    57   27   39 1   
    58   28   29 1   
    59   28   30 1   
@<TRIPOS>SUBSTRUCTURE
     1 30E         1 TEMP              0 ****  ****    0 ROOT
