@<TRIPOS>MOLECULE
30G
   24    26     1     0     0
SMALL
bcc


@<TRIPOS>ATOM
      1 C9          0.0550    0.1990   -0.0400 ca        1 30G     -0.125000
      2 C13         1.4400    0.0560   -0.0090 ca        1 30G     -0.128000
      3 C4         -0.6890    0.2330    1.1380 ca        1 30G     -0.141000
      4 C8          2.1060   -0.0500    1.2100 ca        1 30G     -0.118000
      5 C1         -0.0450    0.1180    2.3860 ca        1 30G      0.095600
      6 C3          1.3670   -0.0230    2.3970 ca        1 30G      0.074100
      7 C5         -0.0200    0.0150    4.8030 c2        1 30G      0.493200
      8 C12        -2.7210   -0.5880    4.9670 c         1 30G      0.674500
      9 C10         1.4600    0.3580    4.7290 c3        1 30G      0.113100
     10 C6         -2.1530   -0.1920    3.6020 c3        1 30G      0.132800
     11 N14        -1.8350   -0.6510    6.0440 n         1 30G     -0.324900
     12 N2         -0.7570    0.2040    3.6040 nh        1 30G     -0.617000
     13 N11        -0.5370   -0.3470    5.9670 n2        1 30G     -0.483300
     14 O15        -3.9210   -0.8670    5.1100 o         1 30G     -0.605500
     15 O7          2.0780   -0.2040    3.5750 os        1 30G     -0.315900
     16 H1         -0.4660    0.2870   -1.0060 ha        1 30G      0.138000
     17 H2          2.0150    0.0300   -0.9460 ha        1 30G      0.140000
     18 H3         -1.7810    0.3540    1.0830 ha        1 30G      0.140000
     19 H4          3.1980   -0.1650    1.2590 ha        1 30G      0.154000
     20 H6          1.5720    1.4760    4.7100 h1        1 30G      0.086700
     21 H5          2.0380   -0.0860    5.5840 h1        1 30G      0.086700
     22 H7         -2.7610    0.6840    3.2310 h1        1 30G      0.083700
     23 H8         -2.3320   -1.0640    2.9060 h1        1 30G      0.083700
     24 H9         -2.1620   -0.8550    6.9680 hn        1 30G      0.361500
@<TRIPOS>BOND
     1    1    2 ar  
     2    1    3 ar  
     3    1   16 1   
     4    2    4 ar  
     5    2   17 1   
     6    3    5 ar  
     7    3   18 1   
     8    4    6 ar  
     9    4   19 1   
    10    5    6 ar  
    11    5   12 1   
    12    6   15 1   
    13    7    9 1   
    14    7   12 1   
    15    7   13 2   
    16    8   10 1   
    17    8   11 1   
    18    8   14 2   
    19    9   15 1   
    20    9   20 1   
    21    9   21 1   
    22   10   12 1   
    23   10   22 1   
    24   10   23 1   
    25   11   13 1   
    26   11   24 1   
@<TRIPOS>SUBSTRUCTURE
     1 30G         1 TEMP              0 ****  ****    0 ROOT
