@<TRIPOS>MOLECULE
30G
   24    26     1     0     0
SMALL
bcc


@<TRIPOS>ATOM
      1 C9          0.0540    0.2060   -0.0400 ca        1 30G     -0.125000
      2 C13         1.4380    0.0500   -0.0110 ca        1 30G     -0.128000
      3 C4         -0.6880    0.2460    1.1380 ca        1 30G     -0.141000
      4 C8          2.1030   -0.0640    1.2080 ca        1 30G     -0.118000
      5 C1         -0.0450    0.1230    2.3850 ca        1 30G      0.095600
      6 C3          1.3660   -0.0310    2.3950 ca        1 30G      0.074100
      7 C5         -0.0190    0.0180    4.8020 c2        1 30G      0.493200
      8 C12        -2.7250   -0.5590    4.9680 c         1 30G      0.674500
      9 C10         1.4640    0.3470    4.7280 c3        1 30G      0.113100
     10 C6         -2.1550   -0.1680    3.6030 c3        1 30G      0.132800
     11 N14        -1.8390   -0.6320    6.0440 n         1 30G     -0.324900
     12 N2         -0.7550    0.2150    3.6040 nh        1 30G     -0.617000
     13 N11        -0.5380   -0.3410    5.9660 n2        1 30G     -0.483300
     14 O15        -3.9280   -0.8260    5.1120 o         1 30G     -0.605500
     15 O7          2.0760   -0.2210    3.5720 os        1 30G     -0.315900
     16 H1         -0.4660    0.3010   -1.0060 ha        1 30G      0.138000
     17 H2          2.0110    0.0190   -0.9490 ha        1 30G      0.140000
     18 H3         -1.7800    0.3780    1.0830 ha        1 30G      0.140000
     19 H4          3.1950   -0.1900    1.2550 ha        1 30G      0.154000
     20 H6          2.0380   -0.1040    5.5820 h1        1 30G      0.086700
     21 H5          1.5880    1.4630    4.7090 h1        1 30G      0.086700
     22 H7         -2.7550    0.7150    3.2320 h1        1 30G      0.083700
     23 H8         -2.3430   -1.0370    2.9060 h1        1 30G      0.083700
     24 H9         -2.1670   -0.8340    6.9680 hn        1 30G      0.361500
@<TRIPOS>BOND
     1    1    2 ar  
     2    1    3 ar  
     3    1   16 1   
     4    2    4 ar  
     5    2   17 1   
     6    3    5 ar  
     7    3   18 1   
     8    4    6 ar  
     9    4   19 1   
    10    5    6 ar  
    11    5   12 1   
    12    6   15 1   
    13    7    9 1   
    14    7   12 1   
    15    7   13 2   
    16    8   10 1   
    17    8   11 1   
    18    8   14 2   
    19    9   15 1   
    20    9   20 1   
    21    9   21 1   
    22   10   12 1   
    23   10   22 1   
    24   10   23 1   
    25   11   13 1   
    26   11   24 1   
@<TRIPOS>SUBSTRUCTURE
     1 30G         1 TEMP              0 ****  ****    0 ROOT
