@<TRIPOS>MOLECULE
30H
   45    45     1     0     0
SMALL
bcc


@<TRIPOS>ATOM
      1 O4        -63.0020  203.7690 -528.3720 o         1 30H     -0.357100
      2 C6        -64.3540  204.3020 -525.5270 c3        1 30H     -0.133100
      3 C11       -62.2810  203.4750 -523.7090 c3        1 30H      0.215100
      4 C12       -62.5710  202.0050 -523.7380 ca        1 30H     -0.245600
      5 C13       -63.7610  201.4870 -523.2090 ca        1 30H     -0.089000
      6 C14       -63.9520  200.1050 -523.2010 ca        1 30H     -0.220300
      7 C15       -62.9490  199.2810 -523.7520 ca        1 30H      0.405200
      8 C17       -61.6120  201.0950 -524.2300 ca        1 30H      0.339200
      9 C18       107.9520 -332.6280  872.5570 ca        1 30H     -0.666500
     10 C19       107.1460 -331.8640  871.6600 ca        1 30H      0.048000
     11 C20       107.1580 -332.0630  870.2940 ca        1 30H     -0.123300
     12 C1        -62.7890  203.4580 -527.2220 c         1 30H      0.535100
     13 C2        -62.8920  204.3540 -525.9620 c3        1 30H      0.154500
     14 N3        -62.3900  201.9930 -526.9380 ny        1 30H     -0.459300
     15 O5        -62.6320  201.2520 -528.0420 oh        1 30H     -0.351300
     16 N7        -61.8840  204.0180 -524.9940 n7        1 30H     -0.888200
     17 S8        107.9160 -332.3830  874.0710 s4        1 30H      1.663300
     18 O9        107.1000 -331.4200  874.5500 o         1 30H     -0.392400
     19 O10       108.7030 -333.1400  874.8660 o         1 30H     -0.392400
     20 N16       -61.8020  199.7610 -524.2680 nb        1 30H     -0.662000
     21 C21       108.0110 -333.0750  869.7600 ca        1 30H      0.314900
     22 C22       108.8250 -333.8530  870.6250 ca        1 30H     -0.195000
     23 C23       108.7900 -333.6290  871.9810 ca        1 30H      0.062000
     24 F24       108.0480 -333.2960  868.4440 f         1 30H     -0.058900
     25 C25       106.3140 -331.2570  869.3830 c3        1 30H     -0.076800
     26 H1        -64.6160  203.3140 -525.0750 hc        1 30H      0.077033
     27 H2        -65.0190  204.4920 -526.4060 hc        1 30H      0.077033
     28 H3        -64.5440  205.1030 -524.7680 hc        1 30H      0.077033
     29 H4        -61.4150  203.6360 -522.9980 h1        1 30H      0.077700
     30 H5        -63.1720  204.0200 -523.2770 h1        1 30H      0.077700
     31 H6        -64.5270  202.1580 -522.7880 ha        1 30H      0.159000
     32 H7        -64.8610  199.6600 -522.7690 ha        1 30H      0.174000
     33 H8        -63.0640  198.1790 -523.7700 h4        1 30H      0.053100
     34 H9        -60.6190  201.4480 -524.5670 h4        1 30H      0.031100
     35 H10       106.4840 -331.0790  872.0820 ha        1 30H      0.184000
     36 H11       -62.6860  205.3930 -526.3840 h1        1 30H      0.120700
     37 H12       -62.9510  201.6520 -526.1330 hn        1 30H      0.470300
     38 H13       -62.2570  200.3510 -527.9120 ho        1 30H      0.467000
     39 H14       109.4790 -334.6320  870.1930 ha        1 30H      0.203000
     40 H15       109.4300 -334.2410  872.6490 ha        1 30H      0.185000
     41 H16       106.9600 -330.6790  868.6720 hc        1 30H      0.082033
     42 H17       105.6720 -330.5360  869.9460 hc        1 30H      0.082033
     43 H18       105.6510 -331.9270  868.7770 hc        1 30H      0.082033
     44 H32       -61.3870  201.9710 -526.6740 hn        1 30H      0.470300
     45 H71       -61.2200  204.7610 -524.8850 hn        1 30H      0.424800
@<TRIPOS>BOND
     1    1   12 2   
     2    2   13 1   
     3    2   26 1   
     4    2   27 1   
     5    2   28 1   
     6    3    4 1   
     7    3   16 1   
     8    3   29 1   
     9    3   30 1   
    10    4    5 ar  
    11    4    8 ar  
    12    5    6 ar  
    13    5   31 1   
    14    6    7 ar  
    15    6   32 1   
    16    7   20 ar  
    17    7   33 1   
    18    8   20 ar  
    19    8   34 1   
    20    9   10 ar  
    21    9   17 1   
    22    9   23 ar  
    23   10   11 ar  
    24   10   35 1   
    25   11   21 ar  
    26   11   25 1   
    27   12   13 1   
    28   12   14 1   
    29   13   16 1   
    30   13   36 1   
    31   14   15 1   
    32   14   37 1   
    33   14   44 1   
    34   15   38 1   
    35   16   45 1   
    36   17   18 1   
    37   17   19 1   
    38   21   22 ar  
    39   21   24 1   
    40   22   23 ar  
    41   22   39 1   
    42   23   40 1   
    43   25   41 1   
    44   25   42 1   
    45   25   43 1   
@<TRIPOS>SUBSTRUCTURE
     1 30H         1 TEMP              0 ****  ****    0 ROOT
