@<TRIPOS>MOLECULE
30H
   43    44     1     0     0
SMALL
bcc


@<TRIPOS>ATOM
      1 O4          2.9800   -1.4260   -0.1450 o         1 30H     -0.564100
      2 C6          3.3420    1.3290    1.2640 c3        1 30H     -0.102100
      3 C11         0.6200    1.7970    2.2370 c3        1 30H      0.268100
      4 C12        -0.4900    1.9760    1.2450 ca        1 30H     -0.257600
      5 C13        -0.2720    2.6130    0.0180 ca        1 30H     -0.077000
      6 C14        -1.3540    2.8270   -0.8360 ca        1 30H     -0.250300
      7 C15        -2.6280    2.3930   -0.4250 ca        1 30H      0.405200
      8 C17        -1.8070    1.5760    1.5650 ca        1 30H      0.409200
      9 C18         1.7780   -0.5850    4.6230 ca        1 30H     -0.404500
     10 C19         2.7980   -1.5430    4.6570 ca        1 30H      0.002000
     11 C20         3.7520   -1.5660    5.6740 ca        1 30H     -0.131300
     12 C1          2.1670   -0.5610    0.2180 c         1 30H      0.578100
     13 C2          2.3930    0.1680    1.5620 c3        1 30H      0.175500
     14 N3          1.1660   -0.0840   -0.6670 n         1 30H     -0.347400
     15 O5          0.8440   -0.9200   -1.6590 oh        1 30H     -0.430100
     16 N7          1.2030    0.4800    2.3110 n3        1 30H     -0.797500
     17 S8          0.6160   -0.6110    3.4040 sy        1 30H      1.501200
     18 O9          0.5970   -1.8940    2.8300 o         1 30H     -0.642300
     19 O10        -0.6020   -0.1210    3.9250 o         1 30H     -0.642300
     20 N16        -2.8590    1.7770    0.7510 nb        1 30H     -0.660000
     21 C21         3.6690   -0.5900    6.6940 ca        1 30H      0.189900
     22 C22         2.6410    0.3740    6.6810 ca        1 30H     -0.191000
     23 C23         1.7120    0.3640    5.6510 ca        1 30H      0.003000
     24 F24         4.5740   -0.5780    7.6970 f         1 30H     -0.125900
     25 C25         4.8280   -2.5820    5.6890 c3        1 30H     -0.056800
     26 H1          2.8890    2.0490    0.5400 hc        1 30H      0.056367
     27 H2          3.6120    1.8710    2.2010 hc        1 30H      0.056367
     28 H3          4.2740    0.9090    0.8100 hc        1 30H      0.056367
     29 H4          1.4170    2.5660    2.0230 h1        1 30H      0.065200
     30 H5          0.1980    2.0390    3.2630 h1        1 30H      0.065200
     31 H6          0.7400    2.9370   -0.2700 ha        1 30H      0.141000
     32 H7         -1.2200    3.3210   -1.8070 ha        1 30H      0.148000
     33 H8         -3.5130    2.5430   -1.0700 h4        1 30H      0.026100
     34 H9         -2.0240    1.0690    2.5290 h4        1 30H      0.058100
     35 H10         2.8380   -2.3160    3.8650 ha        1 30H      0.167000
     36 H11         2.9760   -0.5840    2.1920 h1        1 30H      0.077700
     37 H12         0.3030    0.1870   -0.2060 hn        1 30H      0.316500
     38 H13         1.6420   -0.9980   -2.2190 ho        1 30H      0.432000
     39 H14         2.5840    1.1170    7.4890 ha        1 30H      0.159000
     40 H15         0.8920    1.1050    5.6490 ha        1 30H      0.155000
     41 H16         5.7890   -2.1270    5.3390 hc        1 30H      0.057033
     42 H17         4.5800   -3.4430    5.0200 hc        1 30H      0.057033
     43 H18         4.9850   -2.9680    6.7270 hc        1 30H      0.057033
@<TRIPOS>BOND
     1    1   12 2   
     2    2   13 1   
     3    2   26 1   
     4    2   27 1   
     5    2   28 1   
     6    3    4 1   
     7    3   16 1   
     8    3   29 1   
     9    3   30 1   
    10    4    5 ar  
    11    4    8 ar  
    12    5    6 ar  
    13    5   31 1   
    14    6    7 ar  
    15    6   32 1   
    16    7   20 ar  
    17    7   33 1   
    18    8   20 ar  
    19    8   34 1   
    20    9   10 ar  
    21    9   17 1   
    22    9   23 ar  
    23   10   11 ar  
    24   10   35 1   
    25   11   21 ar  
    26   11   25 1   
    27   12   13 1   
    28   12   14 1   
    29   13   16 1   
    30   13   36 1   
    31   14   15 1   
    32   14   37 1   
    33   15   38 1   
    34   16   17 1   
    35   17   18 2   
    36   17   19 2   
    37   21   22 ar  
    38   21   24 1   
    39   22   23 ar  
    40   22   39 1   
    41   23   40 1   
    42   25   41 1   
    43   25   42 1   
    44   25   43 1   
@<TRIPOS>SUBSTRUCTURE
     1 30H         1 TEMP              0 ****  ****    0 ROOT
