@<TRIPOS>MOLECULE
30J
   56    61     1     0     0
SMALL
bcc


@<TRIPOS>ATOM
      1 C2          0.0000    0.0000    0.0000 ca        1 30J     -0.158000
      2 C3          1.3650    0.0000    0.0000 ca        1 30J     -0.041000
      3 C42         7.4520   -0.0020   -2.4630 c2        1 30J      0.047000
      4 C44         8.0790   -1.0610   -4.4160 c2        1 30J     -0.006000
      5 C46         8.9570   -0.0220   -4.7310 c2        1 30J     -0.057000
      6 C47         9.0730    1.0640   -3.8510 c2        1 30J     -0.026000
      7 C49         8.3080    1.0680   -2.7150 c2        1 30J     -0.189000
      8 C51         9.7280   -0.0650   -5.9380 c1        1 30J     -0.097000
      9 C53         4.8680   -1.2370   -2.4100 c3        1 30J     -0.676000
     10 C11        -0.0800    0.0060    2.3980 ca        1 30J     -0.068000
     11 C13        -0.7180    0.0070    1.1930 ca        1 30J     -0.084000
     12 C18         1.0980    1.4210    5.4070 ca        1 30J     -0.101000
     13 C19        -0.0640    2.0740    5.0410 ca        1 30J     -0.114500
     14 C21        -0.2820    3.3780    5.4470 ca        1 30J     -0.112500
     15 C23         0.6630    4.0290    6.2180 ca        1 30J     -0.087000
     16 C25         1.8250    3.3760    6.5830 ca        1 30J     -0.112500
     17 C27         2.0410    2.0710    6.1820 ca        1 30J     -0.114500
     18 C30         5.0710   -1.2110    0.0810 DU        1 30J     -0.165000
     19 Cl1        -0.8540    0.0010   -1.5120 cl        1 30J      0.071000
     20 C5          2.0520    0.0000    1.2180 ca        1 30J     -0.019000
     21 C6          3.4630   -0.0020    1.3020 c2        1 30J     -0.064000
     22 N7          4.0290   -0.0020    2.4960 n2        1 30J     -0.071000
     23 N8          3.3620   -0.0010    3.5890 n2        1 30J     -0.019000
     24 C9          2.0500   -0.0010    3.6380 c2        1 30J     -0.048000
     25 C10         1.3200   -0.0000    2.4350 ca        1 30J     -0.062000
     26 N29         4.2380   -0.0020    0.1540 nh        1 30J      0.013000
     27 C33         5.8490   -1.2130   -1.2360 c3        1 30J     -0.262000
     28 N35         6.6780   -0.0010   -1.3140 nh        1 30J      0.017000
     29 C36         5.8450    1.2080   -1.2410 c3        1 30J     -0.160000
     30 C39         5.0660    1.2090    0.0760 c3        1 30J     -0.132000
     31 N43         7.3660   -1.0200   -3.3090 n2        1 30J     -0.141000
     32 N52        10.3500   -0.0830   -6.8880 n1        1 30J     -0.048000
     33 H1          1.5490    0.2060   -1.0470 ha        1 30J      0.150000
     34 H2          7.6890   -1.9110   -4.9620 h4        1 30J      0.134000
     35 H3          9.7350    1.8180   -4.2590 ha        1 30J      0.123000
     36 H4          8.8460    1.7430   -2.0600 ha        1 30J      0.140000
     37 H5          5.3080   -2.2240   -2.4870 hc        1 30J      0.210667
     38 H6          5.0260   -1.2800   -3.4800 hc        1 30J      0.210667
     39 H7          5.5010   -0.4260   -2.7490 hc        1 30J      0.210667
     40 H8         -0.6630   -0.0880    3.3060 ha        1 30J      0.122000
     41 H9         -1.7740   -0.1670    1.0200 ha        1 30J      0.117000
     42 H10         0.5110   -0.6990    5.0260 hc        1 30J      0.082500
     43 H11         2.1260   -0.2060    5.6770 hc        1 30J      0.082500
     44 H12        -0.9730    1.5310    4.8110 ha        1 30J      0.114000
     45 H13        -1.1780    3.3470    4.8380 ha        1 30J      0.129500
     46 H14         0.1890    4.9660    6.4840 ha        1 30J      0.113000
     47 H15         2.2540    4.0540    7.3110 ha        1 30J      0.129500
     48 H16         2.8920    1.4090    6.2820 ha        1 30J      0.114000
     49 H17         5.6010   -1.0730    1.0150 ha        1 30J      0.107000
     50 H18         4.5750   -2.1380    0.3430 ha        1 30J      0.107000
     51 H19         5.8100   -1.2160   -0.1540 DU        1 30J      0.360000
     52 H20         5.4740    1.6830   -2.1420 h1        1 30J      0.064500
     53 H21         6.4000    2.0800   -0.9160 h1        1 30J      0.064500
     54 H22         5.8390    1.3840    0.8140 h1        1 30J      0.112500
     55 H23         4.2700    1.7840   -0.3810 h1        1 30J      0.112500
     56 C15         1.3360    0.0010    4.9650 c3        1 30J     -0.024000
@<TRIPOS>BOND
     1    1    2 1   
     2    1   11 1   
     3    1   19 1   
     4    2   20 1   
     5    2   33 1   
     6    3    7 1   
     7    3   28 1   
     8    3   31 1   
     9    4    5 1   
    10    4   31 1   
    11    4   34 1   
    12    5    6 1   
    13    5    8 1   
    14    6    7 1   
    15    6   35 1   
    16    7   36 1   
    17    8   32 1   
    18    9   27 1   
    19    9   37 1   
    20    9   38 1   
    21    9   39 1   
    22   10   11 1   
    23   10   25 1   
    24   10   40 1   
    25   11   41 1   
    26   12   13 1   
    27   12   17 1   
    28   12   56 1   
    29   13   14 1   
    30   13   44 1   
    31   14   15 1   
    32   14   45 1   
    33   15   16 1   
    34   15   46 1   
    35   16   17 1   
    36   16   47 1   
    37   17   48 1   
    38   18   26 1   
    39   18   27 1   
    40   18   49 1   
    41   18   50 1   
    42   18   51 1   
    43   20   21 1   
    44   20   25 1   
    45   21   22 1   
    46   21   26 1   
    47   22   23 1   
    48   23   24 1   
    49   24   25 1   
    50   24   56 1   
    51   26   30 1   
    52   27   28 1   
    53   27   51 1   
    54   28   29 1   
    55   29   30 1   
    56   29   52 1   
    57   29   53 1   
    58   30   54 1   
    59   30   55 1   
    60   42   56 1   
    61   43   56 1   
@<TRIPOS>SUBSTRUCTURE
     1 30J         1 TEMP              0 ****  ****    0 ROOT
