@<TRIPOS>MOLECULE
30J
   56    60     1     0     0
SMALL
bcc


@<TRIPOS>ATOM
      1 C2          0.2790   -0.3430    0.2960 ca        1 30J      0.019400
      2 C3          1.6410   -0.1300    0.2540 ca        1 30J     -0.098000
      3 C42         7.4560   -0.1320   -2.8010 ca        1 30J      0.676200
      4 C44         8.1270   -1.1610   -4.7850 ca        1 30J      0.478200
      5 C46         9.3610   -0.4730   -4.8120 ca        1 30J     -0.191300
      6 C47         9.6280    0.4200   -3.7630 ca        1 30J     -0.023000
      7 C49         8.6900    0.5970   -2.7570 ca        1 30J     -0.299300
      8 C51        10.2860   -0.6830   -5.8600 cg        1 30J      0.245800
      9 C53         4.2340   -0.4600   -2.6790 c3        1 30J     -0.120100
     10 C11         0.2610   -0.1460    2.7010 ca        1 30J     -0.103000
     11 C13        -0.4220   -0.3550    1.5280 ca        1 30J     -0.109000
     12 C18         1.0100    1.5210    5.5420 ca        1 30J     -0.085300
     13 C19        -0.3530    1.4590    5.8520 ca        1 30J     -0.124500
     14 C21        -1.0560    2.6210    6.1660 ca        1 30J     -0.127000
     15 C23        -0.4030    3.8540    6.1720 ca        1 30J     -0.127000
     16 C25         0.9570    3.9210    5.8680 ca        1 30J     -0.127000
     17 C27         1.6630    2.7600    5.5560 ca        1 30J     -0.124500
     18 C30         4.7770   -0.9720   -0.2810 c3        1 30J      0.166800
     19 CL1        -0.5910   -0.5880   -1.1430 cl        1 30J     -0.081400
     20 C5          2.3590    0.0700    1.4600 ca        1 30J     -0.114300
     21 C6          3.7940    0.3130    1.5150 ca        1 30J      0.567200
     22 N7          4.4020    0.5560    2.7110 nb        1 30J     -0.361000
     23 N8          3.7550    0.5580    3.8220 nb        1 30J     -0.309000
     24 C9          2.4300    0.3110    3.8940 ca        1 30J      0.366600
     25 C10         1.6620    0.0700    2.6980 ca        1 30J     -0.114300
     26 N29         4.5240    0.3470    0.2890 nh        1 30J     -0.728300
     27 C33         5.3510   -0.8790   -1.7250 c3        1 30J      0.219500
     28 N35         6.5420   -0.0300   -1.7370 nh        1 30J     -0.750300
     29 C36         6.3350    1.2750   -1.1320 c3        1 30J      0.194800
     30 C39         5.7260    1.1720    0.2860 c3        1 30J      0.174800
     31 N43         7.2010   -1.0060   -3.8360 nb        1 30J     -0.731000
     32 N52        11.0480   -0.8560   -6.7230 n1        1 30J     -0.368800
     33 H1          2.1710   -0.0970   -0.7130 ha        1 30J      0.168000
     34 H2          7.8650   -1.8790   -5.5860 h4        1 30J      0.033100
     35 H3         10.5800    0.9730   -3.7340 ha        1 30J      0.149000
     36 H4          8.9230    1.2760   -1.9270 ha        1 30J      0.151000
     37 H5          3.3940   -1.1920   -2.5970 hc        1 30J      0.048700
     38 H6          4.5900   -0.4540   -3.7370 hc        1 30J      0.048700
     39 H7          3.8450    0.5560   -2.4270 hc        1 30J      0.048700
     40 H8         -0.2800   -0.1240    3.6620 ha        1 30J      0.152000
     41 H9         -1.5100   -0.5220    1.5320 ha        1 30J      0.154000
     42 H10         1.0890   -0.6210    5.2760 hc        1 30J      0.071200
     43 H11         2.5420    0.1280    6.0500 hc        1 30J      0.071200
     44 H12        -0.8730    0.4890    5.8560 ha        1 30J      0.136500
     45 H13        -2.1270    2.5640    6.4100 ha        1 30J      0.133000
     46 H14        -0.9590    4.7700    6.4190 ha        1 30J      0.133000
     47 H15         1.4750    4.8910    5.8750 ha        1 30J      0.133000
     48 H16         2.7370    2.8130    5.3220 ha        1 30J      0.136500
     49 H17         5.4990   -1.5620    0.3540 h1        1 30J      0.054700
     50 H18         3.8070   -1.5400   -0.3290 h1        1 30J      0.054700
     51 H19         5.6760   -1.9280   -1.9960 h1        1 30J      0.083700
     52 H20         5.6570    1.9040   -1.7790 h1        1 30J      0.052700
     53 H21         7.3130    1.8170   -1.0230 h1        1 30J      0.052700
     54 H22         6.5150    0.7770    0.9890 h1        1 30J      0.062700
     55 H23         5.4450    2.2100    0.6160 h1        1 30J      0.062700
     56 C15         1.7690    0.2740    5.2420 c3        1 30J     -0.085400
@<TRIPOS>BOND
     1    1    2 ar  
     2    1   11 ar  
     3    1   19 1   
     4    2   20 ar  
     5    2   33 1   
     6    3    7 ar  
     7    3   28 1   
     8    3   31 ar  
     9    4    5 ar  
    10    4   31 ar  
    11    4   34 1   
    12    5    6 ar  
    13    5    8 1   
    14    6    7 ar  
    15    6   35 1   
    16    7   36 1   
    17    8   32 3   
    18    9   27 1   
    19    9   37 1   
    20    9   38 1   
    21    9   39 1   
    22   10   11 ar  
    23   10   25 ar  
    24   10   40 1   
    25   11   41 1   
    26   12   13 ar  
    27   12   17 ar  
    28   12   56 1   
    29   13   14 ar  
    30   13   44 1   
    31   14   15 ar  
    32   14   45 1   
    33   15   16 ar  
    34   15   46 1   
    35   16   17 ar  
    36   16   47 1   
    37   17   48 1   
    38   18   26 1   
    39   18   27 1   
    40   18   49 1   
    41   18   50 1   
    42   20   21 ar  
    43   20   25 ar  
    44   21   22 ar  
    45   21   26 1   
    46   22   23 ar  
    47   23   24 ar  
    48   24   25 ar  
    49   24   56 1   
    50   26   30 1   
    51   27   28 1   
    52   27   51 1   
    53   28   29 1   
    54   29   30 1   
    55   29   52 1   
    56   29   53 1   
    57   30   54 1   
    58   30   55 1   
    59   42   56 1   
    60   43   56 1   
@<TRIPOS>SUBSTRUCTURE
     1 30J         1 TEMP              0 ****  ****    0 ROOT
