@<TRIPOS>MOLECULE
30J
   56    60     1     0     0
SMALL
bcc


@<TRIPOS>ATOM
      1 C2          0.2520   -0.0280    0.1400 ca        1 30J      0.019400
      2 C3          1.6280    0.0570    0.1770 ca        1 30J     -0.099000
      3 C42         7.3900   -0.1600   -2.7840 ca        1 30J      0.679200
      4 C44         8.2210   -1.3560   -4.6070 ca        1 30J      0.481200
      5 C46         9.1920   -0.3720   -4.9050 ca        1 30J     -0.197300
      6 C47         9.2220    0.7730   -4.0960 ca        1 30J     -0.017000
      7 C49         8.3250    0.8940   -3.0450 ca        1 30J     -0.316300
      8 C51        10.0880   -0.5410   -5.9860 cg        1 30J      0.246800
      9 C53         4.2610   -0.3890   -2.6470 c3        1 30J     -0.121100
     10 C11         0.1230    0.0420    2.5490 ca        1 30J     -0.102000
     11 C13        -0.5120   -0.0380    1.3340 ca        1 30J     -0.109000
     12 C18         0.8710    1.4740    5.5160 ca        1 30J     -0.085300
     13 C19        -0.5070    1.5260    5.7550 ca        1 30J     -0.124500
     14 C21        -1.1140    2.7320    6.1030 ca        1 30J     -0.127000
     15 C23        -0.3510    3.8940    6.2150 ca        1 30J     -0.127000
     16 C25         1.0230    3.8460    5.9830 ca        1 30J     -0.127000
     17 C27         1.6340    2.6420    5.6370 ca        1 30J     -0.124500
     18 C30         4.6990   -1.0390   -0.2600 c3        1 30J      0.165800
     19 CL1        -0.5590   -0.1130   -1.3510 cl        1 30J     -0.080400
     20 C5          2.2960    0.1250    1.4250 ca        1 30J     -0.113300
     21 C6          3.7420    0.2280    1.5630 ca        1 30J      0.566200
     22 N7          4.3040    0.3460    2.8000 nb        1 30J     -0.360000
     23 N8          3.6020    0.3480    3.8770 nb        1 30J     -0.308000
     24 C9          2.2590    0.2260    3.8690 ca        1 30J      0.367600
     25 C10         1.5360    0.1240    2.6260 ca        1 30J     -0.114300
     26 N29         4.5380    0.2630    0.3780 nh        1 30J     -0.725300
     27 C33         5.3200   -0.9120   -1.6770 c3        1 30J      0.218500
     28 N35         6.5550   -0.1280   -1.6530 nh        1 30J     -0.745300
     29 C36         6.5070    1.1010   -0.8850 c3        1 30J      0.193800
     30 C39         5.8170    0.9500    0.4890 c3        1 30J      0.173800
     31 N43         7.3460   -1.2700   -3.6040 nb        1 30J     -0.727000
     32 N52        10.8250   -0.6800   -6.8750 n1        1 30J     -0.370800
     33 H1          2.2100    0.0910   -0.7610 ha        1 30J      0.168000
     34 H2          8.1420   -2.2730   -5.2230 h4        1 30J      0.033100
     35 H3          9.9490    1.5760   -4.2960 ha        1 30J      0.149000
     36 H4          8.3460    1.8070   -2.4360 ha        1 30J      0.149000
     37 H5          3.9300    0.6400   -2.3680 hc        1 30J      0.047367
     38 H6          4.6570   -0.3680   -3.6900 hc        1 30J      0.047367
     39 H7          3.3750   -1.0680   -2.6220 hc        1 30J      0.047367
     40 H8         -0.4640    0.0640    3.4820 ha        1 30J      0.152000
     41 H9         -1.6100   -0.1020    1.2760 ha        1 30J      0.154000
     42 H10         2.2370   -0.0850    6.0140 hc        1 30J      0.071700
     43 H11         0.7650   -0.6470    5.1280 hc        1 30J      0.071700
     44 H12        -1.1150    0.6130    5.6750 ha        1 30J      0.136500
     45 H13        -2.1980    2.7650    6.2900 ha        1 30J      0.133000
     46 H14        -0.8320    4.8440    6.4890 ha        1 30J      0.133000
     47 H15         1.6290    4.7600    6.0740 ha        1 30J      0.133000
     48 H16         2.7200    2.6040    5.4600 ha        1 30J      0.136500
     49 H17         5.3540   -1.7200    0.3590 h1        1 30J      0.056200
     50 H18         3.6890   -1.5250   -0.3640 h1        1 30J      0.056200
     51 H19         5.5910   -1.9680   -1.9820 h1        1 30J      0.091700
     52 H20         7.5620    1.4320   -0.6610 h1        1 30J      0.051200
     53 H21         5.9900    1.9160   -1.4700 h1        1 30J      0.051200
     54 H22         5.6340    1.9840    0.8940 h1        1 30J      0.063700
     55 H23         6.5240    0.4150    1.1880 h1        1 30J      0.063700
     56 C15         1.5260    0.1780    5.1800 c3        1 30J     -0.085400
@<TRIPOS>BOND
     1    1    2 ar  
     2    1   11 ar  
     3    1   19 1   
     4    2   20 ar  
     5    2   33 1   
     6    3    7 ar  
     7    3   28 1   
     8    3   31 ar  
     9    4    5 ar  
    10    4   31 ar  
    11    4   34 1   
    12    5    6 ar  
    13    5    8 1   
    14    6    7 ar  
    15    6   35 1   
    16    7   36 1   
    17    8   32 3   
    18    9   27 1   
    19    9   37 1   
    20    9   38 1   
    21    9   39 1   
    22   10   11 ar  
    23   10   25 ar  
    24   10   40 1   
    25   11   41 1   
    26   12   13 ar  
    27   12   17 ar  
    28   12   56 1   
    29   13   14 ar  
    30   13   44 1   
    31   14   15 ar  
    32   14   45 1   
    33   15   16 ar  
    34   15   46 1   
    35   16   17 ar  
    36   16   47 1   
    37   17   48 1   
    38   18   26 1   
    39   18   27 1   
    40   18   49 1   
    41   18   50 1   
    42   20   21 ar  
    43   20   25 ar  
    44   21   22 ar  
    45   21   26 1   
    46   22   23 ar  
    47   23   24 ar  
    48   24   25 ar  
    49   24   56 1   
    50   26   30 1   
    51   27   28 1   
    52   27   51 1   
    53   28   29 1   
    54   29   30 1   
    55   29   52 1   
    56   29   53 1   
    57   30   54 1   
    58   30   55 1   
    59   42   56 1   
    60   43   56 1   
@<TRIPOS>SUBSTRUCTURE
     1 30J         1 TEMP              0 ****  ****    0 ROOT
