@<TRIPOS>MOLECULE
30K
   68    62     1     0     0
SMALL
bcc


@<TRIPOS>ATOM
      1 O1         -4.1650    0.0900    1.9720 o         1 30K     -0.350000
      2 C11        -2.9490    0.0790    1.9550 c1        1 30K      0.346000
      3 N1         -2.0940    0.1020    3.0970 n2        1 30K     -0.325000
      4 C8         -0.6740    0.1260    2.6160 c2        1 30K      0.028000
      5 C9          0.5420    0.1760    3.3010 c1        1 30K     -0.133000
      6 C7         -0.6890    0.1180    1.2130 c2        1 30K     -0.067000
      7 C6          0.5140    0.1600    0.5030 c1        1 30K     -0.119000
      8 C5          1.7280    0.2100    1.1890 c1        1 30K      0.033000
      9 N4          3.0210    0.4010    0.6120 n3        1 30K     -0.266000
     10 C23         4.2320    0.0530    1.3810 c3        1 30K     -0.009000
     11 C24         4.8520   -1.1570    0.7790 c3        1 30K     -0.175000
     12 C25         6.1990   -1.4770    1.3890 c3        1 30K     -0.065500
     13 N5          7.1030   -0.3230    1.3910 n3        1 30K     -0.257000
     14 C29         8.2940   -0.6540    2.0990 c3        1 30K     -0.065000
     15 C30         9.4970   -0.3760    1.2220 c3        1 30K     -0.213000
     16 C26         6.4950    0.8780    1.9870 c3        1 30K     -0.065500
     17 C27         5.1470    1.2090    1.3790 c3        1 30K     -0.175000
     18 C4          1.7420    0.2180    2.5910 c1        1 30K     -0.146000
     19 C10        -2.1100    0.0880    0.7680 c2        1 30K     -0.086000
     20 C2         -2.5430    0.1640   -0.5070 c1        1 30K      0.099000
     21 C1         -1.5480    0.1630   -1.6440 c1        1 30K     -0.068000
     22 C12        -1.1670    1.3600   -2.2310 c2        1 30K     -0.109000
     23 C13        -0.3080    1.3550   -3.3190 c1        1 30K     -0.138000
     24 C14         0.1690    0.1540   -3.8200 c1        1 30K     -0.132500
     25 C15        -0.2120   -1.0420   -3.2340 c1        1 30K     -0.132500
     26 C16        -1.0710   -1.0380   -2.1460 c1        1 30K     -0.084000
     27 C3         -4.0290    0.2500   -0.8000 c2        1 30K      0.030000
     28 N2         -4.8430   -0.8380   -0.7760 n2        1 30K     -0.123000
     29 C17        -6.0890   -0.4380   -1.1360 c1        1 30K     -0.045000
     30 C19        -7.3000   -1.1420   -1.2840 c1        1 30K     -0.102000
     31 C18        -6.0450    0.9030   -1.3840 c1        1 30K     -0.055000
     32 N3         -4.7730    1.3250   -1.1760 n1        1 30K     -0.200000
     33 C22        -7.2110    1.5830   -1.7880 c1        1 30K     -0.132500
     34 C21        -8.4020    0.8900   -1.9340 c1        1 30K     -0.132500
     35 C20        -8.4470   -0.4730   -1.6820 c1        1 30K      0.056000
     36 O2         -9.4800   -1.4240   -1.7540 os        1 30K     -0.213000
     37 C28       -10.5350   -1.0570   -2.6160 c3        1 30K     -0.074000
     38 H1         -2.3650    0.0970    3.9690 hn        1 30K      0.258000
     39 H9          0.5530    0.1820    4.2770 ha        1 30K      0.140000
     40 H4          2.5910    0.2540    3.0690 ha        1 30K      0.139000
     41 H6          0.5040    0.1700   -0.4740 ha        1 30K      0.154000
     42 HA          3.0980    0.7360   -0.2330 hn        1 30K      0.185000
     43 H23         3.9770   -0.1470    2.3000 h1        1 30K      0.100000
     44 H241        4.2540   -1.9190    0.9140 hc        1 30K      0.095000
     45 H242        4.9660   -1.0090   -0.1810 hc        1 30K      0.095000
     46 H271        5.2790    1.5050    0.4560 hc        1 30K      0.095000
     47 H272        4.7390    1.9360    1.8900 hc        1 30K      0.095000
     48 H251        6.6130   -2.2020    0.8790 h1        1 30K      0.072250
     49 H252        6.0650   -1.7750    2.3120 h1        1 30K      0.072250
     50 H291        8.2780   -1.6030    2.3400 h1        1 30K      0.069000
     51 H292        8.3520   -0.1110    2.9130 h1        1 30K      0.069000
     52 H261        7.0970    1.6380    1.8510 h1        1 30K      0.072250
     53 H262        6.3820    0.7320    2.9470 h1        1 30K      0.072250
     54 H301       10.1580   -1.0910    1.3370 hc        1 30K      0.079333
     55 H302        9.8970    0.4820    1.4770 hc        1 30K      0.079333
     56 H303        9.2160   -0.3390    0.2840 hc        1 30K      0.079333
     57 H12        -1.5030    2.2060   -1.8780 ha        1 30K      0.139000
     58 H16        -1.3400   -1.8810   -1.7320 ha        1 30K      0.154000
     59 H13        -0.0390    2.1980   -3.7320 ha        1 30K      0.136000
     60 H14         0.7740    0.1510   -4.5870 ha        1 30K      0.137250
     61 H15         0.1240   -1.8880   -3.5870 ha        1 30K      0.137250
     62 H3         -4.4650    2.1760   -1.2880 DU        1 30K      0.265000
     63 H19        -7.3320   -2.1010   -1.1070 ha        1 30K      0.164000
     64 H22        -7.1790    2.5420   -1.9650 ha        1 30K      0.137250
     65 H21        -9.2100    1.3610   -2.2140 ha        1 30K      0.137250
     66 H281      -11.3360   -1.5790   -2.3930 h1        1 30K      0.081333
     67 H282      -10.7270   -0.1000   -2.5100 h1        1 30K      0.081333
     68 H283      -10.2750   -1.2370   -3.5460 h1        1 30K      0.081333
@<TRIPOS>BOND
     1    1    2 1   
     2    2   19 1   
     3    3    4 1   
     4    3   38 1   
     5    4    5 1   
     6    4    6 1   
     7    5   39 1   
     8    6    7 1   
     9    6   19 1   
    10    7   41 1   
    11    8    9 1   
    12    8   18 1   
    13    9   10 1   
    14    9   42 1   
    15   10   11 1   
    16   10   17 1   
    17   10   43 1   
    18   11   12 1   
    19   11   44 1   
    20   11   45 1   
    21   12   13 1   
    22   12   48 1   
    23   12   49 1   
    24   13   14 1   
    25   13   16 1   
    26   14   15 1   
    27   14   50 1   
    28   14   51 1   
    29   15   54 1   
    30   15   55 1   
    31   15   56 1   
    32   16   17 1   
    33   16   52 1   
    34   16   53 1   
    35   17   46 1   
    36   17   47 1   
    37   18   40 1   
    38   19   20 1   
    39   20   27 1   
    40   21   22 1   
    41   21   26 1   
    42   22   23 1   
    43   22   57 1   
    44   23   59 1   
    45   24   25 1   
    46   24   60 1   
    47   25   61 1   
    48   26   58 1   
    49   27   28 1   
    50   27   32 1   
    51   28   29 1   
    52   29   31 1   
    53   30   35 1   
    54   30   63 1   
    55   33   34 1   
    56   33   64 1   
    57   34   65 1   
    58   35   36 1   
    59   36   37 1   
    60   37   66 1   
    61   37   67 1   
    62   37   68 1   
@<TRIPOS>SUBSTRUCTURE
     1 30K         1 TEMP              0 ****  ****    0 ROOT
