@<TRIPOS>MOLECULE
30K
   69    74     1     0     0
SMALL
bcc


@<TRIPOS>ATOM
      1 O1          0.1660    0.4820    0.3950 o         1 30K     -0.506500
      2 C11         1.3130    0.0490    0.3880 c         1 30K      0.711700
      3 N1          1.9900   -0.3370    1.5930 n         1 30K     -0.466100
      4 C8          3.2970   -0.6790    1.3100 ca        1 30K      0.141600
      5 C9          4.3100   -1.1230    2.1710 ca        1 30K     -0.176000
      6 C7          3.5560   -0.5240   -0.1100 ca        1 30K     -0.094800
      7 C6          4.7980   -0.8150   -0.6230 ca        1 30K     -0.047000
      8 C5          5.8060   -1.2690    0.2610 ca        1 30K     -0.132400
      9 N4          7.1220   -1.6110   -0.2750 n4        1 30K     -0.617400
     10 C23         8.1900   -0.5960    0.0690 c3        1 30K      0.123500
     11 C24         9.5860   -1.1990   -0.1110 c3        1 30K     -0.102900
     12 C25        10.6400   -0.1470    0.2470 c3        1 30K      0.171300
     13 N5         10.4950    1.0750   -0.5280 n3        1 30K     -0.738600
     14 C29        11.5740    2.0210   -0.2610 c3        1 30K      0.170800
     15 C30        11.5840    3.2360   -1.1720 c3        1 30K     -0.100100
     16 C26         9.1680    1.6540   -0.3980 c3        1 30K      0.171300
     17 C27         8.0580    0.6710   -0.7780 c3        1 30K     -0.102900
     18 C4          5.5600   -1.4150    1.6380 ca        1 30K     -0.048000
     19 C10         2.3020   -0.1080   -0.7460 cc        1 30K     -0.113400
     20 C2          2.0140    0.0590   -2.0520 cf        1 30K      0.062200
     21 C1          3.0130    0.0690   -3.1250 ca        1 30K     -0.111800
     22 C12         2.9630   -0.9090   -4.1300 ca        1 30K     -0.110000
     23 C13         3.8820   -0.8770   -5.1780 ca        1 30K     -0.136500
     24 C14         4.8410    0.1330   -5.2400 ca        1 30K     -0.111000
     25 C15         4.8880    1.1120   -4.2460 ca        1 30K     -0.136500
     26 C16         3.9810    1.0810   -3.1890 ca        1 30K     -0.110000
     27 C3          0.6230    0.1900   -2.5140 cd        1 30K      0.408100
     28 N2         -0.3490   -0.7210   -2.2640 nc        1 30K     -0.528100
     29 C17        -1.4880   -0.2400   -2.9320 ca        1 30K      0.093400
     30 C19        -2.7830   -0.7660   -3.0260 ca        1 30K     -0.097000
     31 C18        -1.1640    1.0110   -3.6010 ca        1 30K     -0.090200
     32 N3          0.1890    1.2480   -3.3430 na        1 30K     -0.255300
     33 C22        -2.1260    1.7140   -4.3360 ca        1 30K     -0.103000
     34 C21        -3.4000    1.1760   -4.4130 ca        1 30K     -0.161000
     35 C20        -3.7190   -0.0430   -3.7700 ca        1 30K      0.110100
     36 O2         -4.9720   -0.6270   -3.8230 os        1 30K     -0.323900
     37 C28        -5.9840    0.0950   -4.5140 c3        1 30K      0.111700
     38 H1          1.5650   -0.3790    2.4860 hn        1 30K      0.361500
     39 H9          4.1250   -1.2470    3.2490 ha        1 30K      0.172000
     40 H4          6.3530   -1.7690    2.3180 ha        1 30K      0.149000
     41 H6          4.9870   -0.6950   -1.7050 ha        1 30K      0.165000
     42 HA          7.0590   -1.6910   -1.2970 hn        1 30K      0.448300
     43 H23         8.0320   -0.3320    1.1580 hx        1 30K      0.106700
     44 H241        9.7300   -2.0820    0.5640 hc        1 30K      0.069700
     45 H242        9.7360   -1.5330   -1.1710 hc        1 30K      0.069700
     46 H271        7.0660    1.1610   -0.5950 hc        1 30K      0.069700
     47 H272        8.1360    0.4210   -1.8690 hc        1 30K      0.069700
     48 H251       10.5860    0.0470    1.3600 h1        1 30K      0.055450
     49 H252       11.6550   -0.5830    0.0220 h1        1 30K      0.055450
     50 H291       12.5410    1.4580   -0.4110 h1        1 30K      0.043200
     51 H292       11.5480    2.3730    0.8120 h1        1 30K      0.043200
     52 H261        8.9690    2.0320    0.6490 h1        1 30K      0.055450
     53 H262        9.1040    2.5340   -1.1000 h1        1 30K      0.055450
     54 H301       12.5500    3.7790   -1.0240 hc        1 30K      0.048367
     55 H302       11.5030    2.9430   -2.2460 hc        1 30K      0.048367
     56 H303       10.7490    3.9360   -0.9270 hc        1 30K      0.048367
     57 H12         2.1880   -1.6930   -4.0930 ha        1 30K      0.151000
     58 H16         4.0090    1.8630   -2.4150 ha        1 30K      0.151000
     59 H13         3.8350   -1.6440   -5.9670 ha        1 30K      0.148000
     60 H14         5.5520    0.1680   -6.0810 ha        1 30K      0.148000
     61 H15         5.6300    1.9230   -4.3070 ha        1 30K      0.148000
     62 H3          0.6950    2.0620   -3.5670 hn        1 30K      0.310700
     63 H19        -3.0600   -1.7090   -2.5340 ha        1 30K      0.170000
     64 H22        -1.8810    2.6600   -4.8370 ha        1 30K      0.143000
     65 H21        -4.1700    1.7130   -4.9870 ha        1 30K      0.147000
     66 H281       -6.1490    1.0950   -4.0450 h1        1 30K      0.048033
     67 H282       -6.8900   -0.5520   -4.3910 h1        1 30K      0.048033
     68 H283       -5.7230    0.2040   -5.5950 h1        1 30K      0.048033
     69 H42         7.4030   -2.5220    0.1060 hn        1 30K      0.448300
@<TRIPOS>BOND
     1    1    2 2   
     2    2    3 1   
     3    2   19 1   
     4    3    4 1   
     5    3   38 1   
     6    4    5 ar  
     7    4    6 ar  
     8    5   18 ar  
     9    5   39 1   
    10    6    7 ar  
    11    6   19 1   
    12    7    8 ar  
    13    7   41 1   
    14    8    9 1   
    15    8   18 ar  
    16    9   10 1   
    17    9   42 1   
    18    9   69 1   
    19   10   11 1   
    20   10   17 1   
    21   10   43 1   
    22   11   12 1   
    23   11   44 1   
    24   11   45 1   
    25   12   13 1   
    26   12   48 1   
    27   12   49 1   
    28   13   14 1   
    29   13   16 1   
    30   14   15 1   
    31   14   50 1   
    32   14   51 1   
    33   15   54 1   
    34   15   55 1   
    35   15   56 1   
    36   16   17 1   
    37   16   52 1   
    38   16   53 1   
    39   17   46 1   
    40   17   47 1   
    41   18   40 1   
    42   19   20 2   
    43   20   21 1   
    44   20   27 1   
    45   21   22 ar  
    46   21   26 ar  
    47   22   23 ar  
    48   22   57 1   
    49   23   24 ar  
    50   23   59 1   
    51   24   25 ar  
    52   24   60 1   
    53   25   26 ar  
    54   25   61 1   
    55   26   58 1   
    56   27   28 2   
    57   27   32 1   
    58   28   29 1   
    59   29   30 ar  
    60   29   31 ar  
    61   30   35 ar  
    62   30   63 1   
    63   31   32 1   
    64   31   33 ar  
    65   32   62 1   
    66   33   34 ar  
    67   33   64 1   
    68   34   35 ar  
    69   34   65 1   
    70   35   36 1   
    71   36   37 1   
    72   37   66 1   
    73   37   67 1   
    74   37   68 1   
@<TRIPOS>SUBSTRUCTURE
     1 30K         1 TEMP              0 ****  ****    0 ROOT
