@<TRIPOS>MOLECULE
30K
   68    73     1     0     0
SMALL
bcc


@<TRIPOS>ATOM
      1 O1          0.1570   -1.2170    0.1960 o         1 30K     -0.625500
      2 C11         1.3850   -1.0870    0.1020 c         1 30K      0.707700
      3 N1          2.2550   -1.3200    1.1790 n         1 30K     -0.471100
      4 C8          3.5880   -1.1770    0.7550 ca        1 30K      0.020600
      5 C9          4.7660   -1.3260    1.4730 ca        1 30K     -0.133000
      6 C7          3.6180   -0.8180   -0.6390 ca        1 30K     -0.078800
      7 C6          4.8230   -0.6220   -1.2750 ca        1 30K     -0.119000
      8 C5          6.0410   -0.7860   -0.5510 ca        1 30K      0.114600
      9 N4          7.2580   -0.7010   -1.2540 nh        1 30K     -0.710600
     10 C23         8.4570   -0.2840   -0.5440 c3        1 30K      0.188500
     11 C24         9.6810   -0.2990   -1.4730 c3        1 30K     -0.096400
     12 C25        10.9410    0.0410   -0.6820 c3        1 30K      0.171300
     13 N5         10.8600    1.3150    0.0200 n3        1 30K     -0.731600
     14 C29        12.0900    1.5970    0.7500 c3        1 30K      0.171800
     15 C30        12.1560    2.9880    1.3590 c3        1 30K     -0.095100
     16 C26         9.6690    1.4240    0.8510 c3        1 30K      0.171300
     17 C27         8.3760    1.1050    0.1070 c3        1 30K     -0.096400
     18 C4          5.9830   -1.1270    0.8140 ca        1 30K     -0.145000
     19 C10         2.2250   -0.7090   -1.1050 cc        1 30K     -0.093400
     20 C2          1.7750   -0.3110   -2.3100 cf        1 30K      0.024200
     21 C1          2.6700    0.0190   -3.4310 ca        1 30K     -0.079800
     22 C12         3.2210   -1.0060   -4.2120 ca        1 30K     -0.096500
     23 C13         4.0390   -0.6920   -5.2960 ca        1 30K     -0.137000
     24 C14         4.3090    0.6410   -5.6070 ca        1 30K     -0.120000
     25 C15         3.7570    1.6620   -4.8350 ca        1 30K     -0.137000
     26 C16         2.9340    1.3570   -3.7500 ca        1 30K     -0.096500
     27 C3          0.3490   -0.1310   -2.6450 cd        1 30K      0.443100
     28 N2         -0.1510    0.9830   -3.2270 nc        1 30K     -0.550100
     29 C17        -1.5230    0.7210   -3.4160 ca        1 30K      0.094400
     30 C19        -2.5330    1.5100   -3.9710 ca        1 30K     -0.102000
     31 C18        -1.8280   -0.6150   -2.9300 ca        1 30K     -0.100200
     32 N3         -0.6100   -1.1680   -2.4990 na        1 30K     -0.243300
     33 C22        -3.1230   -1.1320   -3.0000 ca        1 30K     -0.095000
     34 C21        -4.1150   -0.3310   -3.5480 ca        1 30K     -0.179000
     35 C20        -3.8210    0.9630   -4.0240 ca        1 30K      0.101100
     36 O2         -4.7680    1.8050   -4.5870 os        1 30K     -0.329900
     37 C28        -6.0980    1.3090   -4.6470 c3        1 30K      0.115700
     38 H1          1.9780   -1.5890    2.0860 hn        1 30K      0.344500
     39 H9          4.7580   -1.5950    2.5380 ha        1 30K      0.140000
     40 H4          6.9090   -1.2500    1.3970 ha        1 30K      0.139000
     41 H6          4.8450   -0.3480   -2.3430 ha        1 30K      0.154000
     42 HA          7.1570   -0.2210   -2.1280 hn        1 30K      0.389800
     43 H23         8.6370   -1.0460    0.2720 h1        1 30K      0.060700
     44 H241        9.8130   -1.3140   -1.9280 hc        1 30K      0.055200
     45 H242        9.5420    0.4390   -2.3050 hc        1 30K      0.055200
     46 H271        7.5290    1.1370    0.8400 hc        1 30K      0.055200
     47 H272        8.1860    1.8830   -0.6770 hc        1 30K      0.055200
     48 H251       11.1560   -0.8110    0.0290 h1        1 30K      0.032700
     49 H252       11.8040    0.1070   -1.4030 h1        1 30K      0.032700
     50 H291       12.2640    0.8400    1.5720 h1        1 30K      0.029200
     51 H292       12.9380    1.4930    0.0140 h1        1 30K      0.029200
     52 H261        9.6120    2.4880    1.2190 h1        1 30K      0.032700
     53 H262        9.7350    0.7530    1.7590 h1        1 30K      0.032700
     54 H301       11.8920    3.7720    0.6090 hc        1 30K      0.040033
     55 H302       11.4640    3.0820    2.2300 hc        1 30K      0.040033
     56 H303       13.1980    3.1720    1.7160 hc        1 30K      0.040033
     57 H12         3.0050   -2.0580   -3.9710 ha        1 30K      0.146500
     58 H16         2.4790    2.1630   -3.1560 ha        1 30K      0.146500
     59 H13         4.4660   -1.4990   -5.9090 ha        1 30K      0.136500
     60 H14         4.9510    0.8860   -6.4660 ha        1 30K      0.134000
     61 H15         3.9600    2.7140   -5.0840 ha        1 30K      0.136500
     62 H3         -0.5490   -1.8570   -1.7880 hn        1 30K      0.314700
     63 H19        -2.3340    2.5200   -4.3550 ha        1 30K      0.164000
     64 H22        -3.3540   -2.1410   -2.6320 ha        1 30K      0.140000
     65 H21        -5.1410   -0.7220   -3.6060 ha        1 30K      0.138000
     66 H281       -6.1520    0.3940   -5.2850 h1        1 30K      0.042033
     67 H282       -6.6680    2.1500   -5.1180 h1        1 30K      0.042033
     68 H283       -6.4900    1.0960   -3.6220 h1        1 30K      0.042033
@<TRIPOS>BOND
     1    1    2 2   
     2    2    3 1   
     3    2   19 1   
     4    3    4 1   
     5    3   38 1   
     6    4    5 ar  
     7    4    6 ar  
     8    5   18 ar  
     9    5   39 1   
    10    6    7 ar  
    11    6   19 1   
    12    7    8 ar  
    13    7   41 1   
    14    8    9 1   
    15    8   18 ar  
    16    9   10 1   
    17    9   42 1   
    18   10   11 1   
    19   10   17 1   
    20   10   43 1   
    21   11   12 1   
    22   11   44 1   
    23   11   45 1   
    24   12   13 1   
    25   12   48 1   
    26   12   49 1   
    27   13   14 1   
    28   13   16 1   
    29   14   15 1   
    30   14   50 1   
    31   14   51 1   
    32   15   54 1   
    33   15   55 1   
    34   15   56 1   
    35   16   17 1   
    36   16   52 1   
    37   16   53 1   
    38   17   46 1   
    39   17   47 1   
    40   18   40 1   
    41   19   20 2   
    42   20   21 1   
    43   20   27 1   
    44   21   22 ar  
    45   21   26 ar  
    46   22   23 ar  
    47   22   57 1   
    48   23   24 ar  
    49   23   59 1   
    50   24   25 ar  
    51   24   60 1   
    52   25   26 ar  
    53   25   61 1   
    54   26   58 1   
    55   27   28 2   
    56   27   32 1   
    57   28   29 1   
    58   29   30 ar  
    59   29   31 ar  
    60   30   35 ar  
    61   30   63 1   
    62   31   32 1   
    63   31   33 ar  
    64   32   62 1   
    65   33   34 ar  
    66   33   64 1   
    67   34   35 ar  
    68   34   65 1   
    69   35   36 1   
    70   36   37 1   
    71   37   66 1   
    72   37   67 1   
    73   37   68 1   
@<TRIPOS>SUBSTRUCTURE
     1 30K         1 TEMP              0 ****  ****    0 ROOT
