@<TRIPOS>MOLECULE
30K
   68    73     1     0     0
SMALL
bcc


@<TRIPOS>ATOM
      1 O1         -2.5230    2.5580    1.4430 o         1 30K     -0.625500
      2 C11        -1.3540    2.1590    1.3490 c         1 30K      0.706700
      3 N1         -0.2540    2.9540    1.7090 n         1 30K     -0.471100
      4 C8          0.9340    2.2110    1.5760 ca        1 30K      0.020600
      5 C9          2.2450    2.5860    1.8320 ca        1 30K     -0.133000
      6 C7          0.6270    0.8890    1.0950 ca        1 30K     -0.078800
      7 C6          1.6400   -0.0200    0.8870 ca        1 30K     -0.119000
      8 C5          2.9900    0.3490    1.1590 ca        1 30K      0.114600
      9 N4          3.9910   -0.6370    1.0550 nh        1 30K     -0.710600
     10 C23         5.3520   -0.2310    0.7420 c3        1 30K      0.188500
     11 C24         6.2970   -1.4430    0.7180 c3        1 30K     -0.096400
     12 C25         7.7330   -0.9810    0.4910 c3        1 30K      0.171300
     13 N5          7.9040   -0.1880   -0.7200 n3        1 30K     -0.731600
     14 C29         9.2930    0.2180   -0.8960 c3        1 30K      0.171800
     15 C30         9.5880    0.8900   -2.2270 c3        1 30K     -0.095100
     16 C26         6.9730    0.9280   -0.7960 c3        1 30K      0.171300
     17 C27         5.5170    0.5220   -0.5870 c3        1 30K     -0.096400
     18 C4          3.2630    1.6520    1.6180 ca        1 30K     -0.145000
     19 C10        -0.8300    0.8090    0.8940 cc        1 30K     -0.093400
     20 C2         -1.5470   -0.2030    0.3740 cf        1 30K      0.024200
     21 C1         -0.9510   -1.4880   -0.0240 ca        1 30K     -0.079800
     22 C12        -0.6770   -2.4630    0.9450 ca        1 30K     -0.096500
     23 C13        -0.1460   -3.6930    0.5630 ca        1 30K     -0.137000
     24 C14         0.1130   -3.9590   -0.7820 ca        1 30K     -0.120000
     25 C15        -0.1650   -2.9920   -1.7480 ca        1 30K     -0.137000
     26 C16        -0.6990   -1.7600   -1.3750 ca        1 30K     -0.096500
     27 C3         -2.9990   -0.1420    0.1130 cd        1 30K      0.443100
     28 N2         -3.5650   -0.4860   -1.0670 nc        1 30K     -0.550100
     29 C17        -4.9530   -0.3330   -0.8720 ca        1 30K      0.094400
     30 C19        -6.0240   -0.5440   -1.7440 ca        1 30K     -0.102000
     31 C18        -5.2010    0.1090    0.4910 ca        1 30K     -0.100200
     32 N3         -3.9480    0.1660    1.1240 na        1 30K     -0.243300
     33 C22        -6.4990    0.3370    0.9530 ca        1 30K     -0.095000
     34 C21        -7.5500    0.1280    0.0700 ca        1 30K     -0.179000
     35 C20        -7.3120   -0.3050   -1.2500 ca        1 30K      0.101100
     36 O2         -8.3210   -0.5350   -2.1730 os        1 30K     -0.329900
     37 C28        -9.6490   -0.2910   -1.7310 c3        1 30K      0.115700
     38 H1         -0.3050    3.8780    2.0480 hn        1 30K      0.344500
     39 H9          2.4930    3.5930    2.1950 ha        1 30K      0.140000
     40 H4          4.2980    1.9640    1.8260 ha        1 30K      0.139000
     41 H6          1.4050   -1.0330    0.5190 ha        1 30K      0.154000
     42 HA          3.6980   -1.4160    0.4970 hn        1 30K      0.389800
     43 H23         5.6920    0.4510    1.5790 h1        1 30K      0.060700
     44 H241        6.2530   -1.9910    1.6940 hc        1 30K      0.055200
     45 H242        5.9920   -2.1530   -0.0940 hc        1 30K      0.055200
     46 H271        5.1760   -0.1240   -1.4360 hc        1 30K      0.055200
     47 H272        4.8880    1.4490   -0.5830 hc        1 30K      0.055200
     48 H251        8.0760   -0.4150    1.4090 h1        1 30K      0.032700
     49 H252        8.3870   -1.8940    0.3920 h1        1 30K      0.032700
     50 H291        9.6300    0.9080   -0.0650 h1        1 30K      0.029200
     51 H292        9.9190   -0.7190   -0.8280 h1        1 30K      0.029200
     52 H261        7.2310    1.7350   -0.0460 h1        1 30K      0.032700
     53 H262        7.0690    1.3770   -1.8250 h1        1 30K      0.032700
     54 H301        9.1480    1.9150   -2.2680 hc        1 30K      0.040033
     55 H302       10.6950    0.9780   -2.3440 hc        1 30K      0.040033
     56 H303        9.1850    0.2960   -3.0800 hc        1 30K      0.040033
     57 H12        -0.8840   -2.2580    2.0060 ha        1 30K      0.146500
     58 H16        -0.9410   -1.0060   -2.1410 ha        1 30K      0.146500
     59 H13         0.0640   -4.4570    1.3260 ha        1 30K      0.136500
     60 H14         0.5280   -4.9330   -1.0800 ha        1 30K      0.134000
     61 H15         0.0290   -3.2030   -2.8100 ha        1 30K      0.136500
     62 H3         -3.7480    0.7810    1.8760 hn        1 30K      0.314700
     63 H19        -5.8710   -0.8870   -2.7760 ha        1 30K      0.164000
     64 H22        -6.6860    0.6720    1.9820 ha        1 30K      0.140000
     65 H21        -8.5770    0.3090    0.4170 ha        1 30K      0.138000
     66 H281       -9.9140   -0.9640   -0.8800 h1        1 30K      0.042033
     67 H282       -9.7810    0.7800   -1.4400 h1        1 30K      0.042033
     68 H283      -10.2710   -0.5320   -2.6310 h1        1 30K      0.042033
@<TRIPOS>BOND
     1    1    2 2   
     2    2    3 1   
     3    2   19 1   
     4    3    4 1   
     5    3   38 1   
     6    4    5 ar  
     7    4    6 ar  
     8    5   18 ar  
     9    5   39 1   
    10    6    7 ar  
    11    6   19 1   
    12    7    8 ar  
    13    7   41 1   
    14    8    9 1   
    15    8   18 ar  
    16    9   10 1   
    17    9   42 1   
    18   10   11 1   
    19   10   17 1   
    20   10   43 1   
    21   11   12 1   
    22   11   44 1   
    23   11   45 1   
    24   12   13 1   
    25   12   48 1   
    26   12   49 1   
    27   13   14 1   
    28   13   16 1   
    29   14   15 1   
    30   14   50 1   
    31   14   51 1   
    32   15   54 1   
    33   15   55 1   
    34   15   56 1   
    35   16   17 1   
    36   16   52 1   
    37   16   53 1   
    38   17   46 1   
    39   17   47 1   
    40   18   40 1   
    41   19   20 2   
    42   20   21 1   
    43   20   27 1   
    44   21   22 ar  
    45   21   26 ar  
    46   22   23 ar  
    47   22   57 1   
    48   23   24 ar  
    49   23   59 1   
    50   24   25 ar  
    51   24   60 1   
    52   25   26 ar  
    53   25   61 1   
    54   26   58 1   
    55   27   28 2   
    56   27   32 1   
    57   28   29 1   
    58   29   30 ar  
    59   29   31 ar  
    60   30   35 ar  
    61   30   63 1   
    62   31   32 1   
    63   31   33 ar  
    64   32   62 1   
    65   33   34 ar  
    66   33   64 1   
    67   34   35 ar  
    68   34   65 1   
    69   35   36 1   
    70   36   37 1   
    71   37   66 1   
    72   37   67 1   
    73   37   68 1   
@<TRIPOS>SUBSTRUCTURE
     1 30K         1 TEMP              0 ****  ****    0 ROOT
