@<TRIPOS>MOLECULE
30K
   68    73     1     0     0
SMALL
bcc


@<TRIPOS>ATOM
      1 O1          0.0680    1.0130    0.2930 o         1 30K     -0.625500
      2 C11         1.2730    0.7270    0.2600 c         1 30K      0.706700
      3 N1          2.1010    0.8160    1.3910 ns        1 30K     -0.471100
      4 C8          3.4200    0.4700    1.0430 ca        1 30K      0.019600
      5 C9          4.5590    0.4160    1.8350 ca        1 30K     -0.132000
      6 C7          3.4860    0.1600   -0.3610 ca        1 30K     -0.078800
      7 C6          4.6870   -0.1960   -0.9330 ca        1 30K     -0.119000
      8 C5          5.8620   -0.2640   -0.1280 ca        1 30K      0.115600
      9 N4          7.0500   -0.7470   -0.7090 nu        1 30K     -0.711600
     10 C23         8.3290   -0.3010   -0.1790 c3        1 30K      0.189500
     11 C24         9.4970   -0.9690   -0.9210 c3        1 30K     -0.096400
     12 C25        10.8220   -0.5670   -0.2800 c3        1 30K      0.171300
     13 N5         11.0240    0.8760   -0.2210 n3        1 30K     -0.731600
     14 C29        12.3070    1.2060    0.3880 c3        1 30K      0.170800
     15 C30        12.6750    2.6790    0.3200 c3        1 30K     -0.095100
     16 C26         9.9060    1.5750    0.3950 c3        1 30K      0.171300
     17 C27         8.5540    1.2180   -0.2150 c3        1 30K     -0.096400
     18 C4          5.7710    0.0530    1.2420 ca        1 30K     -0.146000
     19 C10         2.1270    0.2870   -0.9150 cc        1 30K     -0.094400
     20 C2          1.7080    0.0250   -2.1670 cf        1 30K      0.024200
     21 C1          2.6220   -0.3740   -3.2500 ca        1 30K     -0.078800
     22 C12         2.7230   -1.7200   -3.6260 ca        1 30K     -0.096500
     23 C13         3.5660   -2.0860   -4.6750 ca        1 30K     -0.137000
     24 C14         4.3010   -1.1160   -5.3570 ca        1 30K     -0.120000
     25 C15         4.1930    0.2250   -4.9900 ca        1 30K     -0.137000
     26 C16         3.3570    0.6000   -3.9400 ca        1 30K     -0.096500
     27 C3          0.2990    0.0780   -2.6000 cd        1 30K      0.443100
     28 N2         -0.3130   -0.9120   -3.2890 nc        1 30K     -0.549100
     29 C17        -1.6160   -0.4400   -3.5430 ca        1 30K      0.094400
     30 C19        -2.6870   -1.0360   -4.2130 ca        1 30K     -0.101000
     31 C18        -1.7610    0.8940   -2.9830 ca        1 30K     -0.100200
     32 N3         -0.5110    1.2350   -2.4400 na        1 30K     -0.243300
     33 C22        -2.9610    1.6000   -3.0960 ca        1 30K     -0.096000
     34 C21        -4.0160    0.9890   -3.7590 ca        1 30K     -0.179000
     35 C20        -3.8770   -0.3040   -4.3060 ca        1 30K      0.101100
     36 O2         -4.8920   -0.9610   -4.9830 os        1 30K     -0.328900
     37 C28        -6.1310   -0.2730   -5.0870 c3        1 30K      0.114700
     38 H1          1.7920    1.0040    2.3080 hn        1 30K      0.344500
     39 H9          4.5220    0.6510    2.9080 ha        1 30K      0.140000
     40 H4          6.6650    0.0140    1.8830 ha        1 30K      0.139000
     41 H6          4.7360   -0.4370   -2.0080 ha        1 30K      0.154000
     42 HA          7.0260   -0.7050   -1.7100 hn        1 30K      0.389800
     43 H23         8.3710   -0.6370    0.9010 h1        1 30K      0.060700
     44 H241        9.4040   -2.0840   -0.8690 hc        1 30K      0.055200
     45 H242        9.4890   -0.6700   -2.0010 hc        1 30K      0.055200
     46 H271        8.5050    1.5850   -1.2730 hc        1 30K      0.055200
     47 H272        7.7530    1.7390    0.3700 hc        1 30K      0.055200
     48 H251       11.6590   -1.0000   -0.8970 h1        1 30K      0.032950
     49 H252       10.8780   -1.0350    0.7480 h1        1 30K      0.032950
     50 H291       13.0940    0.6190   -0.1680 h1        1 30K      0.029700
     51 H292       12.3450    0.8790    1.4700 h1        1 30K      0.029700
     52 H261        9.8590    1.3800    1.5080 h1        1 30K      0.032950
     53 H262       10.0790    2.6790    0.2500 h1        1 30K      0.032950
     54 H301       12.5560    3.0790   -0.7160 hc        1 30K      0.040033
     55 H302       12.0430    3.2860    1.0110 hc        1 30K      0.040033
     56 H303       13.7420    2.7940    0.6270 hc        1 30K      0.040033
     57 H12         2.1250   -2.4820   -3.1030 ha        1 30K      0.146500
     58 H16         3.2680    1.6590   -3.6570 ha        1 30K      0.146500
     59 H13         3.6430   -3.1430   -4.9680 ha        1 30K      0.136500
     60 H14         4.9590   -1.4080   -6.1880 ha        1 30K      0.134000
     61 H15         4.7640    0.9930   -5.5330 ha        1 30K      0.136500
     62 H3         -0.4030    1.8630   -1.6790 hn        1 30K      0.314700
     63 H19        -2.6080   -2.0390   -4.6540 ha        1 30K      0.164000
     64 H22        -3.0710    2.6070   -2.6720 ha        1 30K      0.140000
     65 H21        -4.9690    1.5290   -3.8510 ha        1 30K      0.138000
     66 H281       -6.5580   -0.0680   -4.0750 h1        1 30K      0.042367
     67 H282       -6.0100    0.6780   -5.6610 h1        1 30K      0.042367
     68 H283       -6.7810   -0.9910   -5.6490 h1        1 30K      0.042367
@<TRIPOS>BOND
     1    1    2 2   
     2    2    3 1   
     3    2   19 1   
     4    3    4 1   
     5    3   38 1   
     6    4    5 ar  
     7    4    6 ar  
     8    5   18 ar  
     9    5   39 1   
    10    6    7 ar  
    11    6   19 1   
    12    7    8 ar  
    13    7   41 1   
    14    8    9 1   
    15    8   18 ar  
    16    9   10 1   
    17    9   42 1   
    18   10   11 1   
    19   10   17 1   
    20   10   43 1   
    21   11   12 1   
    22   11   44 1   
    23   11   45 1   
    24   12   13 1   
    25   12   48 1   
    26   12   49 1   
    27   13   14 1   
    28   13   16 1   
    29   14   15 1   
    30   14   50 1   
    31   14   51 1   
    32   15   54 1   
    33   15   55 1   
    34   15   56 1   
    35   16   17 1   
    36   16   52 1   
    37   16   53 1   
    38   17   46 1   
    39   17   47 1   
    40   18   40 1   
    41   19   20 2   
    42   20   21 1   
    43   20   27 1   
    44   21   22 ar  
    45   21   26 ar  
    46   22   23 ar  
    47   22   57 1   
    48   23   24 ar  
    49   23   59 1   
    50   24   25 ar  
    51   24   60 1   
    52   25   26 ar  
    53   25   61 1   
    54   26   58 1   
    55   27   28 2   
    56   27   32 1   
    57   28   29 1   
    58   29   30 ar  
    59   29   31 ar  
    60   30   35 ar  
    61   30   63 1   
    62   31   32 1   
    63   31   33 ar  
    64   32   62 1   
    65   33   34 ar  
    66   33   64 1   
    67   34   35 ar  
    68   34   65 1   
    69   35   36 1   
    70   36   37 1   
    71   37   66 1   
    72   37   67 1   
    73   37   68 1   
@<TRIPOS>SUBSTRUCTURE
     1 30K         1 TEMP              0 ****  ****    0 ROOT
