@<TRIPOS>MOLECULE
30L
   38    39     1     0     0
SMALL
bcc


@<TRIPOS>ATOM
      1 N1         -0.0010    0.1480   -0.6760 n         1 30L     -0.559900
      2 C3          1.3880    0.3420   -0.3630 c3        1 30L      0.134300
      3 C4          1.7620    0.0450    1.0640 ca        1 30L     -0.132300
      4 C5          2.4390   -1.1320    1.3830 ca        1 30L     -0.060000
      5 C6          2.8020   -1.3700    2.7190 ca        1 30L     -0.180200
      6 N7          3.5240   -2.6220    3.0670 no        1 30L      0.313200
      7 O8          3.7710   -3.4130    2.1950 o         1 30L     -0.207500
      8 O9          3.8400   -2.8130    4.2110 o         1 30L     -0.207500
      9 C10         2.4920   -0.4460    3.7290 ca        1 30L     -0.062000
     10 C11         1.8120    0.7220    3.3900 ca        1 30L     -0.143000
     11 C12         1.4460    0.9690    2.0680 ca        1 30L     -0.071000
     12 C19        -0.9420    1.1410   -0.4790 c         1 30L      0.679700
     13 O20        -0.5990    2.2870   -0.1160 o         1 30L     -0.609100
     14 C21        -2.3800    0.8170   -0.7020 ca        1 30L     -0.181600
     15 C22        -3.3030    1.4540    0.1400 ca        1 30L     -0.028000
     16 C24        -4.6680    1.2350    0.0190 ca        1 30L     -0.195000
     17 C26        -5.1400    0.3580   -0.9760 ca        1 30L      0.186900
     18 F27        -6.4660    0.1310   -1.1030 f         1 30L     -0.124900
     19 C28        -4.2410   -0.2870   -1.8430 ca        1 30L     -0.244000
     20 C30        -2.8690   -0.0480   -1.6990 ca        1 30L      0.176100
     21 O31        -1.9360   -0.6840   -2.5000 os        1 30L     -0.357900
     22 C32        -2.3980   -1.1070   -3.7880 c3        1 30L      0.031400
     23 C33        -1.1830   -1.2380   -4.6740 c         1 30L      0.629100
     24 O34        -1.1810   -1.8050   -5.7650 o         1 30L     -0.478000
     25 O36         0.0110   -0.7050   -4.3040 oh        1 30L     -0.567100
     26 H1         -0.3160   -0.7840   -0.8170 hn        1 30L      0.321500
     27 H2          1.6540    1.4200   -0.5810 h1        1 30L      0.076200
     28 H3          1.9890   -0.3200   -1.0520 h1        1 30L      0.076200
     29 H4          2.6940   -1.8670    0.6000 ha        1 30L      0.169000
     30 H5          2.7850   -0.6430    4.7750 ha        1 30L      0.172000
     31 H6          1.5650    1.4540    4.1750 ha        1 30L      0.151000
     32 H7          0.9050    1.8930    1.7970 ha        1 30L      0.169000
     33 H8         -2.9220    2.1550    0.9040 ha        1 30L      0.169000
     34 H9         -5.3830    1.7400    0.6860 ha        1 30L      0.164000
     35 H10        -4.6280   -0.9720   -2.6100 ha        1 30L      0.163000
     36 H11        -3.1040   -0.3580   -4.2340 h1        1 30L      0.090700
     37 H12        -2.9010   -2.1050   -3.6840 h1        1 30L      0.090700
     38 H121       -0.0620   -0.2600   -3.4460 ho        1 30L      0.448000
@<TRIPOS>BOND
     1    1    2 1   
     2    1   12 1   
     3    1   26 1   
     4    2    3 1   
     5    2   27 1   
     6    2   28 1   
     7    3    4 ar  
     8    3   11 ar  
     9    4    5 ar  
    10    4   29 1   
    11    5    6 1   
    12    5    9 ar  
    13    6    7 1   
    14    6    8 1   
    15    9   10 ar  
    16    9   30 1   
    17   10   11 ar  
    18   10   31 1   
    19   11   32 1   
    20   12   13 2   
    21   12   14 1   
    22   14   15 ar  
    23   14   20 ar  
    24   15   16 ar  
    25   15   33 1   
    26   16   17 ar  
    27   16   34 1   
    28   17   18 1   
    29   17   19 ar  
    30   19   20 ar  
    31   19   35 1   
    32   20   21 1   
    33   21   22 1   
    34   22   23 1   
    35   22   36 1   
    36   22   37 1   
    37   23   24 2   
    38   23   25 1   
    39   25   38 1   
@<TRIPOS>SUBSTRUCTURE
     1 30L         1 TEMP              0 ****  ****    0 ROOT
