@<TRIPOS>MOLECULE
30L
   38    39     1     0     0
SMALL
bcc


@<TRIPOS>ATOM
      1 N1         -0.1630    0.4180   -0.7580 ns        1 30L     -0.562900
      2 C3          1.2380    0.6280   -0.5190 c3        1 30L      0.138300
      3 C4          1.7230    0.1700    0.8310 ca        1 30L     -0.129300
      4 C5          2.5100   -0.9760    0.9430 ca        1 30L     -0.059000
      5 C6          2.9780   -1.3590    2.2110 ca        1 30L     -0.180200
      6 N7          3.8240   -2.5750    2.3410 no        1 30L      0.313200
      7 O8          4.1060   -3.1970    1.3520 o         1 30L     -0.208500
      8 O9          4.2040   -2.9050    3.4330 o         1 30L     -0.208500
      9 C10         2.6600   -0.6130    3.3570 ca        1 30L     -0.063000
     10 C11         1.8690    0.5250    3.2230 ca        1 30L     -0.144000
     11 C12         1.4010    0.9180    1.9700 ca        1 30L     -0.072000
     12 C19        -1.1230    1.3420   -0.4060 c         1 30L      0.683700
     13 O20        -0.8100    2.4290    0.1250 o         1 30L     -0.610100
     14 C21        -2.5550    1.0000   -0.6540 ca        1 30L     -0.169600
     15 C22        -3.4880    1.4460    0.2930 ca        1 30L     -0.034000
     16 C24        -4.8440    1.1780    0.1530 ca        1 30L     -0.187000
     17 C26        -5.2960    0.4620   -0.9720 ca        1 30L      0.179900
     18 F27        -6.6120    0.1960   -1.1200 f         1 30L     -0.125900
     19 C28        -4.3860    0.0280   -1.9520 ca        1 30L     -0.229000
     20 C30        -3.0250    0.3030   -1.7810 ca        1 30L      0.162100
     21 O31        -2.1110   -0.0150   -2.7750 os        1 30L     -0.353900
     22 C32        -2.2790   -1.3000   -3.3840 c3        1 30L      0.026400
     23 C33        -0.9160   -1.9470   -3.4440 c         1 30L      0.612100
     24 O34        -0.7070   -3.1540   -3.5500 o         1 30L     -0.471000
     25 O36         0.2040   -1.1780   -3.3670 oh        1 30L     -0.579100
     26 H1         -0.0280   -0.2360   -3.4010 ho        1 30L      0.449000
     27 H2          1.4550    1.7340   -0.6120 h1        1 30L      0.076200
     28 H3          1.8050    0.0800   -1.3280 h1        1 30L      0.076200
     29 H4          2.7680   -1.5740    0.0520 ha        1 30L      0.173000
     30 H5          3.0340   -0.9250    4.3470 ha        1 30L      0.171000
     31 H6          1.6150    1.1180    4.1150 ha        1 30L      0.150000
     32 H7          0.7740    1.8210    1.8610 ha        1 30L      0.169000
     33 H8         -3.1250    2.0270    1.1590 ha        1 30L      0.169000
     34 H9         -5.5670    1.5220    0.9070 ha        1 30L      0.163000
     35 H10        -4.7490   -0.5040   -2.8420 ha        1 30L      0.162000
     36 H11        -2.6630   -1.1280   -4.4250 h1        1 30L      0.095200
     37 H12        -2.9850   -1.9590   -2.8150 h1        1 30L      0.095200
     38 H121       -0.4440   -0.4760   -1.0860 hn        1 30L      0.318500
@<TRIPOS>BOND
     1    1    2 1   
     2    1   12 1   
     3    1   38 1   
     4    2    3 1   
     5    2   27 1   
     6    2   28 1   
     7    3    4 ar  
     8    3   11 ar  
     9    4    5 ar  
    10    4   29 1   
    11    5    6 1   
    12    5    9 ar  
    13    6    7 1   
    14    6    8 1   
    15    9   10 ar  
    16    9   30 1   
    17   10   11 ar  
    18   10   31 1   
    19   11   32 1   
    20   12   13 2   
    21   12   14 1   
    22   14   15 ar  
    23   14   20 ar  
    24   15   16 ar  
    25   15   33 1   
    26   16   17 ar  
    27   16   34 1   
    28   17   18 1   
    29   17   19 ar  
    30   19   20 ar  
    31   19   35 1   
    32   20   21 1   
    33   21   22 1   
    34   22   23 1   
    35   22   36 1   
    36   22   37 1   
    37   23   24 2   
    38   23   25 1   
    39   25   26 1   
@<TRIPOS>SUBSTRUCTURE
     1 30L         1 TEMP              0 ****  ****    0 ROOT
