@<TRIPOS>MOLECULE
30M
   44    46     1     0     0
SMALL
bcc


@<TRIPOS>ATOM
      1 C2          0.0980    0.1330    0.1030 cc        1 30M     -0.031300
      2 C3          1.5610    0.1550    0.3270 c3        1 30M     -0.035200
      3 C4          1.8840   -0.3350    1.7500 c3        1 30M      0.103000
      4 C6         -0.2850   -1.5040    1.9600 c         1 30M      0.731700
      5 O20         2.1420   -0.5340   -8.2170 o         1 30M     -0.388100
      6 C19         1.0210   -0.0950   -8.0300 c         1 30M      0.554100
      7 C22        -0.2430   -0.4000   -8.7520 c3        1 30M     -0.187100
      8 N18         0.9140    0.9260   -6.9040 n4        1 30M     -0.690800
      9 C17         0.5250    0.2690   -5.6180 c3        1 30M      0.105800
     10 C16         0.4570    1.2470   -4.4520 c3        1 30M     -0.104400
     11 C15         0.0040    0.4990   -3.2150 c3        1 30M     -0.119400
     12 N1         -0.6350    0.8880   -0.8330 na        1 30M     -0.066400
     13 C7         -0.7680   -0.6460    0.8760 cd        1 30M     -0.170400
     14 O21        -1.0020   -2.3020    2.5930 o         1 30M     -0.620500
     15 N5          1.0830   -1.4320    2.2190 n         1 30M     -0.572900
     16 C8         -2.1120   -0.4280    0.3930 ca        1 30M     -0.044800
     17 C9         -1.9960    0.5120   -0.6990 ca        1 30M     -0.064200
     18 C10        -3.1330    0.9480   -1.3900 ca        1 30M     -0.154000
     19 C11        -4.3650    0.4430   -0.9920 ca        1 30M     -0.107000
     20 C12        -4.4820   -0.4710    0.0670 ca        1 30M     -0.142000
     21 C13        -3.3640   -0.9100    0.7670 ca        1 30M     -0.065000
     22 H1          2.0600   -0.5100   -0.4290 hc        1 30M      0.060700
     23 H2          1.9820    1.1880    0.2100 hc        1 30M      0.060700
     24 H3          1.7790    0.5470    2.4500 h1        1 30M      0.048200
     25 H4          2.9640   -0.6610    1.7700 h1        1 30M      0.048200
     26 H5         -0.0610   -1.2740   -9.4350 hc        1 30M      0.118033
     27 H6         -0.5530    0.4780   -9.3770 hc        1 30M      0.118033
     28 H7         -1.0710   -0.6600   -8.0450 hc        1 30M      0.118033
     29 H8          1.8240    1.3880   -6.7760 hn        1 30M      0.458800
     30 H9          1.2880   -0.5350   -5.4020 hx        1 30M      0.111200
     31 H10        -0.4810   -0.2190   -5.7700 hx        1 30M      0.111200
     32 H11        -0.2650    2.0770   -4.6760 hc        1 30M      0.068700
     33 H12         1.4640    1.7080   -4.2680 hc        1 30M      0.068700
     34 H13         0.7240   -0.3270   -2.9780 hc        1 30M      0.070700
     35 H14        -1.0010    0.0330   -3.3970 hc        1 30M      0.070700
     36 H15        -0.7430    2.3360   -2.3120 h1        1 30M      0.065700
     37 H16         0.9430    1.8510   -1.7850 h1        1 30M      0.065700
     38 H17         1.4230   -1.9240    3.0140 hn        1 30M      0.326500
     39 H18        -3.0580    1.6750   -2.2080 ha        1 30M      0.121000
     40 H19        -5.2760    0.7730   -1.5160 ha        1 30M      0.136000
     41 H20        -5.4800   -0.8400    0.3490 ha        1 30M      0.145000
     42 H21        -3.4450   -1.6220    1.6050 ha        1 30M      0.171000
     43 C14        -0.0880    1.4630   -2.0220 c3        1 30M      0.048300
     44 H182        0.2190    1.6380   -7.1480 hn        1 30M      0.458800
@<TRIPOS>BOND
     1    1    2 1   
     2    1   12 1   
     3    1   13 2   
     4    2    3 1   
     5    2   22 1   
     6    2   23 1   
     7    3   15 1   
     8    3   24 1   
     9    3   25 1   
    10    4   13 1   
    11    4   14 2   
    12    4   15 1   
    13    5    6 2   
    14    6    7 1   
    15    6    8 1   
    16    7   26 1   
    17    7   27 1   
    18    7   28 1   
    19    8    9 1   
    20    8   29 1   
    21    8   44 1   
    22    9   10 1   
    23    9   30 1   
    24    9   31 1   
    25   10   11 1   
    26   10   32 1   
    27   10   33 1   
    28   11   34 1   
    29   11   35 1   
    30   11   43 1   
    31   12   17 1   
    32   12   43 1   
    33   13   16 1   
    34   15   38 1   
    35   16   17 ar  
    36   16   21 ar  
    37   17   18 ar  
    38   18   19 ar  
    39   18   39 1   
    40   19   20 ar  
    41   19   40 1   
    42   20   21 ar  
    43   20   41 1   
    44   21   42 1   
    45   36   43 1   
    46   37   43 1   
@<TRIPOS>SUBSTRUCTURE
     1 30M         1 TEMP              0 ****  ****    0 ROOT
