@<TRIPOS>MOLECULE
30O
   46    47     1     0     0
SMALL
bcc


@<TRIPOS>ATOM
      1 C21         0.4030    0.0420   -0.0830 ca        1 30O     -0.067500
      2 C20         1.7030   -0.4300    0.0820 ca        1 30O     -0.135500
      3 C22        -0.1890    0.7960    0.9420 ca        1 30O     -0.176200
      4 C23         0.5130    1.0750    2.1260 ca        1 30O     -0.067500
      5 C24         1.8090    0.5910    2.2740 ca        1 30O     -0.135500
      6 C19         2.4120   -0.1600    1.2560 ca        1 30O     -0.069300
      7 C18         3.8410   -0.6010    1.4340 c3        1 30O      0.261100
      8 N6          4.1330   -1.9710    1.1110 n3        1 30O     -0.799500
      9 C1          3.8900   -2.9660    2.1350 c3        1 30O      0.168500
     10 C28         2.6810   -2.7200    3.0310 c3        1 30O     -0.098100
     11 C2          5.1410   -3.0880    3.0440 c         1 30O      0.568100
     12 N4          5.9730   -4.2180    2.8260 n         1 30O     -0.365400
     13 O5          7.2280   -4.0810    3.2590 oh        1 30O     -0.437100
     14 O3          5.3520   -2.2910    3.9700 o         1 30O     -0.558100
     15 S7          4.8400   -2.4360   -0.3010 sy        1 30O      1.514200
     16 O8          5.3350   -3.7490   -0.1100 o         1 30O     -0.656300
     17 O9          3.9570   -2.2380   -1.3780 o         1 30O     -0.656300
     18 C10         6.1330   -1.3800   -0.4600 ca        1 30O     -0.416500
     19 C15         7.3230   -1.5930    0.2510 ca        1 30O      0.013000
     20 C14         8.4180   -0.7580    0.0860 ca        1 30O     -0.187000
     21 C13         8.3360    0.3240   -0.8120 ca        1 30O      0.196900
     22 F16         9.4020    1.1370   -0.9720 f         1 30O     -0.122900
     23 C12         7.1490    0.5580   -1.5470 ca        1 30O     -0.133300
     24 C11         6.0710   -0.3030   -1.3550 ca        1 30O      0.002000
     25 C17         7.0620    1.6940   -2.4920 c3        1 30O     -0.056800
     26 N1         -1.5750    1.3070    0.7740 no        1 30O      0.312200
     27 O1         -2.0700    1.9490    1.6620 o         1 30O     -0.207500
     28 O4         -2.1650    1.0660   -0.2450 o         1 30O     -0.207500
     29 H1         -0.1550   -0.1750   -1.0110 ha        1 30O      0.173500
     30 H2          2.1660   -1.0200   -0.7300 ha        1 30O      0.164500
     31 H3          0.0410    1.6670    2.9280 ha        1 30O      0.173500
     32 H4          2.3600    0.8020    3.2040 ha        1 30O      0.164500
     33 H5          4.1580   -0.4060    2.5040 h1        1 30O      0.072700
     34 H6          4.4770    0.0610    0.7690 h1        1 30O      0.072700
     35 H7          3.7150   -3.9570    1.6060 h1        1 30O      0.087700
     36 H8          1.7620   -2.5670    2.4160 hc        1 30O      0.059367
     37 H9          2.8390   -1.8220    3.6780 hc        1 30O      0.059367
     38 H10         2.5380   -3.6120    3.6870 hc        1 30O      0.059367
     39 H11         6.0010   -4.5280    1.8550 hn        1 30O      0.336500
     40 H12         7.1950   -4.2370    4.2240 ho        1 30O      0.434000
     41 H13         7.3970   -2.4500    0.9470 ha        1 30O      0.159000
     42 H14         9.3490   -0.9300    0.6460 ha        1 30O      0.165000
     43 H15         5.1430   -0.1420   -1.9370 ha        1 30O      0.164000
     44 H16         6.1860    1.5850   -3.1770 hc        1 30O      0.057367
     45 H17         6.9560    2.6550   -1.9280 hc        1 30O      0.057367
     46 H18         7.9940    1.7570   -3.1100 hc        1 30O      0.057367
@<TRIPOS>BOND
     1    1    2 ar  
     2    1    3 ar  
     3    1   29 1   
     4    2    6 ar  
     5    2   30 1   
     6    3    4 ar  
     7    3   26 1   
     8    4    5 ar  
     9    4   31 1   
    10    5    6 ar  
    11    5   32 1   
    12    6    7 1   
    13    7    8 1   
    14    7   33 1   
    15    7   34 1   
    16    8    9 1   
    17    8   15 1   
    18    9   10 1   
    19    9   11 1   
    20    9   35 1   
    21   10   36 1   
    22   10   37 1   
    23   10   38 1   
    24   11   12 1   
    25   11   14 2   
    26   12   13 1   
    27   12   39 1   
    28   13   40 1   
    29   15   16 2   
    30   15   17 2   
    31   15   18 1   
    32   18   19 ar  
    33   18   24 ar  
    34   19   20 ar  
    35   19   41 1   
    36   20   21 ar  
    37   20   42 1   
    38   21   22 1   
    39   21   23 ar  
    40   23   24 ar  
    41   23   25 1   
    42   24   43 1   
    43   25   44 1   
    44   25   45 1   
    45   25   46 1   
    46   26   27 1   
    47   26   28 1   
@<TRIPOS>SUBSTRUCTURE
     1 30O         1 TEMP              0 ****  ****    0 ROOT
