@<TRIPOS>MOLECULE
30O
   48    48     1     0     0
SMALL
bcc


@<TRIPOS>ATOM
      1 C21      -319.2230 -132.1730  640.5310 ca        1 30O     -0.058500
      2 C20      -319.0350 -131.5280  641.7520 ca        1 30O     -0.133500
      3 C22      -320.3240 -131.8200  639.7360 ca        1 30O     -0.159200
      4 C23      -321.2250 -130.8280  640.1510 ca        1 30O     -0.058500
      5 C24      -321.0240 -130.1990  641.3790 ca        1 30O     -0.133500
      6 C19      -319.9330 -130.5450  642.1820 ca        1 30O     -0.112300
      7 C18      -319.6950 -129.8310  643.4820 c3        1 30O      0.203100
      8 N6       -319.6600 -130.6640  644.6690 n7        1 30O     -0.865200
      9 C1       -320.9040 -130.9620  645.3370 c3        1 30O      0.160500
     10 C28      -322.2090 -130.7500  644.5740 c3        1 30O     -0.131100
     11 C2       -321.0180 -130.1360  646.6310 c         1 30O      0.571100
     12 N4       -319.7030 -130.0360  647.4760 ny        1 30O     -0.472300
     13 O5       -319.2960 -131.2990  647.7280 oh        1 30O     -0.358300
     14 O3       -321.9540 -129.5690  647.1470 o         1 30O     -0.382100
     15 S7        595.1180  233.9660-1172.5060 s4        1 30O      1.663300
     16 O8        595.7290  233.2420-1173.4680 o         1 30O     -0.392400
     17 O9        593.8080  233.8310-1172.2060 o         1 30O     -0.392400
     18 C10       595.9490  234.9880-1171.7190 ca        1 30O     -0.666500
     19 C15       597.3380  235.1840-1171.9820 ca        1 30O      0.062000
     20 C14       598.0870  236.0980-1171.2800 ca        1 30O     -0.195000
     21 C13       597.4770  236.8760-1170.2620 ca        1 30O      0.314900
     22 F16       598.2080  237.7630-1169.5820 f         1 30O     -0.058900
     23 C12       596.0900  236.7120-1169.9650 ca        1 30O     -0.123300
     24 C11       595.3670  235.7860-1170.6890 ca        1 30O      0.048000
     25 C17       595.4650  237.5290-1168.9000 c3        1 30O     -0.076800
     26 N1       -320.5360 -132.5070  638.4280 no        1 30O      0.312200
     27 O1       -321.4810 -132.1890  637.7600 o         1 30O     -0.185500
     28 O4       -319.7580 -133.3570  638.0950 o         1 30O     -0.185500
     29 H1       -318.5120 -132.9470  640.1890 ha        1 30O      0.185500
     30 H2       -318.1580 -131.7880  642.3650 ha        1 30O      0.145500
     31 H3       -322.0820 -130.5490  639.5110 ha        1 30O      0.185500
     32 H4       -321.7280 -129.4180  641.7040 ha        1 30O      0.145500
     33 H5       -320.4610 -129.0160  643.6150 h1        1 30O      0.077700
     34 H6       -318.6760 -129.3400  643.4250 h1        1 30O      0.077700
     35 H7       -320.8790 -132.0360  645.7170 h1        1 30O      0.115700
     36 H8       -322.1450 -131.2580  643.5790 hc        1 30O      0.081700
     37 H9       -323.0580 -131.1890  645.1540 hc        1 30O      0.081700
     38 H10      -322.4200 -129.6650  644.4070 hc        1 30O      0.081700
     39 H11      -318.9960 -129.5230  646.9200 hn        1 30O      0.464800
     40 H12      -318.4490 -131.2710  648.2300 ho        1 30O      0.471000
     41 H13       597.8230  234.5800-1172.7760 ha        1 30O      0.185000
     42 H14       599.1620  236.2390-1171.4950 ha        1 30O      0.203000
     43 H15       594.2880  235.6540-1170.4640 ha        1 30O      0.184000
     44 H16       595.9520  237.3120-1167.9140 hc        1 30O      0.082033
     45 H17       594.3700  237.3180-1168.8100 hc        1 30O      0.082033
     46 H18       595.6010  238.6190-1169.1200 hc        1 30O      0.082033
     47 H61      -319.1400 -131.5060  644.5000 hn        1 30O      0.407800
     48 H42      -319.8950 -129.5250  648.3570 hn        1 30O      0.464800
@<TRIPOS>BOND
     1    1    2 ar  
     2    1    3 ar  
     3    1   29 1   
     4    2    6 ar  
     5    2   30 1   
     6    3    4 ar  
     7    3   26 1   
     8    4    5 ar  
     9    4   31 1   
    10    5    6 ar  
    11    5   32 1   
    12    6    7 1   
    13    7    8 1   
    14    7   33 1   
    15    7   34 1   
    16    8    9 1   
    17    8   47 1   
    18    9   10 1   
    19    9   11 1   
    20    9   35 1   
    21   10   36 1   
    22   10   37 1   
    23   10   38 1   
    24   11   12 1   
    25   11   14 2   
    26   12   13 1   
    27   12   39 1   
    28   12   48 1   
    29   13   40 1   
    30   15   16 1   
    31   15   17 1   
    32   15   18 1   
    33   18   19 ar  
    34   18   24 ar  
    35   19   20 ar  
    36   19   41 1   
    37   20   21 ar  
    38   20   42 1   
    39   21   22 1   
    40   21   23 ar  
    41   23   24 ar  
    42   23   25 1   
    43   24   43 1   
    44   25   44 1   
    45   25   45 1   
    46   25   46 1   
    47   26   27 1   
    48   26   28 1   
@<TRIPOS>SUBSTRUCTURE
     1 30O         1 TEMP              0 ****  ****    0 ROOT
