@<TRIPOS>MOLECULE
30O
   48    48     1     0     0
SMALL
bcc


@<TRIPOS>ATOM
      1 C21       -56.1220  -24.2920   80.1040 ca        1 30O     -0.057500
      2 C20       -56.2060  -24.7340   81.4230 ca        1 30O     -0.132500
      3 C22       -57.2150  -23.6160   79.5400 ca        1 30O     -0.157200
      4 C23       -58.3770  -23.3740   80.2880 ca        1 30O     -0.057500
      5 C24       -58.4440  -23.8280   81.6040 ca        1 30O     -0.132500
      6 C19       -57.3650  -24.5110   82.1740 ca        1 30O     -0.112300
      7 C18       -57.4270  -24.9550   83.6050 c3        1 30O      0.194100
      8 N6        -57.1990  -26.3660   83.8630 n3        1 30O     -0.873200
      9 C1        -58.3430  -27.2540   83.7940 c3        1 30O      0.133500
     10 C28       -59.3310  -27.0640   82.6460 c3        1 30O     -0.133100
     11 C2        -59.1460  -27.2210   85.0990 c         1 30O      0.536100
     12 N4        -58.3500  -26.9590   86.4010 n4        1 30O     -0.455300
     13 O5        -57.3160  -27.8110   86.5580 oh        1 30O     -0.352300
     14 O3        -60.3290  -27.4110   85.2870 o         1 30O     -0.374100
     15 S7        119.1450   43.8710 -145.8220 s4        1 30O      1.663300
     16 O8        120.4300   44.2630 -145.6860 o         1 30O     -0.392400
     17 O9        118.4010   43.4230 -144.7880 o         1 30O     -0.392400
     18 C10       118.5020   43.9390 -147.2140 ca        1 30O     -0.666500
     19 C15       119.2280   44.4030 -148.3520 ca        1 30O      0.062000
     20 C14       118.6550   44.4650 -149.6000 ca        1 30O     -0.195000
     21 C13       117.3070   44.0620 -149.7790 ca        1 30O      0.314900
     22 F16       116.7550   44.1240 -150.9930 f         1 30O     -0.058900
     23 C12       116.5440   43.5920 -148.6680 ca        1 30O     -0.123300
     24 C11       117.1480   43.5410 -147.4280 ca        1 30O      0.048000
     25 C17       115.1370   43.1740 -148.8660 c3        1 30O     -0.076800
     26 N1        -57.1370  -23.1430   78.1260 no        1 30O      0.312200
     27 O1        -58.0810  -22.5650   77.6640 o         1 30O     -0.183000
     28 O4        -56.1360  -23.3630   77.5040 o         1 30O     -0.183000
     29 H1        -55.2060  -24.4660   79.5100 ha        1 30O      0.187500
     30 H2        -55.3390  -25.2430   81.8710 ha        1 30O      0.145500
     31 H3        -59.2270  -22.8290   79.8380 ha        1 30O      0.187500
     32 H4        -59.3550  -23.6310   82.1920 ha        1 30O      0.145500
     33 H5        -56.6110  -24.4080   84.1690 h1        1 30O      0.070200
     34 H6        -58.4180  -24.6540   84.0520 h1        1 30O      0.070200
     35 H7        -57.9470  -28.3220   83.7460 h1        1 30O      0.119700
     36 H8        -60.1930  -27.7680   82.7580 hc        1 30O      0.083033
     37 H9        -59.7220  -26.0180   82.6090 hc        1 30O      0.083033
     38 H10       -58.8140  -27.2840   81.6790 hc        1 30O      0.083033
     39 H11       -58.0330  -25.9740   86.4200 hn        1 30O      0.478300
     40 H12       -56.5980  -27.5720   85.9270 ho        1 30O      0.480000
     41 H13       120.2830   44.7200 -148.2210 ha        1 30O      0.185000
     42 H14       119.2300   44.8260 -150.4720 ha        1 30O      0.203000
     43 H15       116.5600   43.1770 -146.5600 ha        1 30O      0.184000
     44 H16       114.6740   42.8210 -147.9120 hc        1 30O      0.082033
     45 H17       114.5330   44.0320 -149.2590 hc        1 30O      0.082033
     46 H18       115.0840   42.3440 -149.6170 hc        1 30O      0.082033
     47 H61       -56.4590  -26.7180   83.2780 hn        1 30O      0.415800
     48 H42       -58.9710  -27.1280   87.2240 hn        1 30O      0.478300
@<TRIPOS>BOND
     1    1    2 ar  
     2    1    3 ar  
     3    1   29 1   
     4    2    6 ar  
     5    2   30 1   
     6    3    4 ar  
     7    3   26 1   
     8    4    5 ar  
     9    4   31 1   
    10    5    6 ar  
    11    5   32 1   
    12    6    7 1   
    13    7    8 1   
    14    7   33 1   
    15    7   34 1   
    16    8    9 1   
    17    8   47 1   
    18    9   10 1   
    19    9   11 1   
    20    9   35 1   
    21   10   36 1   
    22   10   37 1   
    23   10   38 1   
    24   11   12 1   
    25   11   14 2   
    26   12   13 1   
    27   12   39 1   
    28   12   48 1   
    29   13   40 1   
    30   15   16 1   
    31   15   17 1   
    32   15   18 1   
    33   18   19 ar  
    34   18   24 ar  
    35   19   20 ar  
    36   19   41 1   
    37   20   21 ar  
    38   20   42 1   
    39   21   22 1   
    40   21   23 ar  
    41   23   24 ar  
    42   23   25 1   
    43   24   43 1   
    44   25   44 1   
    45   25   45 1   
    46   25   46 1   
    47   26   27 1   
    48   26   28 1   
@<TRIPOS>SUBSTRUCTURE
     1 30O         1 TEMP              0 ****  ****    0 ROOT
