@<TRIPOS>MOLECULE
30P
   48    51     1     0     0
SMALL
bcc


@<TRIPOS>ATOM
      1 C21      -622.6280  191.3240 -661.1780 ca        1 30P      0.090000
      2 C20      -622.2810  192.5790 -661.7360 ca        1 30P     -0.249000
      3 C22      -623.1210  191.2940 -659.8450 ca        1 30P     -0.186000
      4 C23      -623.2570  192.4680 -659.1220 ca        1 30P     -0.075000
      5 C24      -622.9220  193.7040 -659.6860 ca        1 30P     -0.212000
      6 C19      -622.4190  193.7500 -660.9860 ca        1 30P     -0.093000
      7 C18      -621.9770  195.0590 -661.5830 c3        1 30P     -0.038000
      8 N6       -622.7630  195.4580 -662.7330 n7        1 30P     -0.365000
      9 C1       -624.0150  196.1310 -662.5430 c3        1 30P      0.016000
     10 C28      -624.2950  196.7920 -661.1950 c3        1 30P     -0.257000
     11 C2       -625.2000  195.1720 -662.8030 c2        1 30P      0.231000
     12 N4       -625.0670  193.7590 -662.2440 ny        1 30P     -0.002000
     13 O5       -626.2090  193.0370 -662.2520 oh        1 30P     -0.215000
     14 O3       -626.2420  195.4110 -663.3850 o         1 30P     -0.178000
     15 S7       1151.2390 -352.0150    0.8360 s4        1 30P      2.875000
     16 O8       1151.9910 -351.5520    0.8570 os        1 30P     -0.784000
     17 O9       1151.2390 -353.3100    0.4530 o         1 30P     -0.784000
     18 C10      1150.3440 -351.0260    0.0770 cx        1 30P     -1.095000
     19 C15      1150.2940 -349.6430    0.4270 DU        1 30P      0.062000
     20 C14      1149.4940 -348.7530    0.7490 cu        1 30P     -0.195000
     21 C13      1148.6910 -349.2060    0.6710 cx        1 30P      0.280000
     22 F16      1147.9160 -348.3380    0.0150 f         1 30P     -0.024000
     23 C12      1148.7110 -350.5810    0.2880 DU        1 30P     -0.116000
     24 C11      1149.5240 -351.4480    0.9870 cx        1 30P      0.048000
     25 C17      1147.8660 -351.0430    0.1620 c2        1 30P     -0.202000
     26 N1       -622.5820  190.1730 -661.9480 nv        1 30P     -0.338000
     27 H1       -621.8420  192.6340 -662.7450 ha        1 30P      0.149000
     28 H2       -623.3830  190.3320 -659.3760 ha        1 30P      0.159000
     29 H3       -623.6230  192.4280 -658.0820 ha        1 30P      0.158000
     30 H4       -623.0020  194.6190 -659.0810 ha        1 30P      0.148000
     31 H5       -621.9710  195.8530 -660.7790 h1        1 30P      0.114500
     32 H6       -620.9090  194.9320 -661.9330 h1        1 30P      0.114500
     33 H7       -624.1420  196.9180 -663.3560 h1        1 30P      0.162000
     34 H8       -625.3110  197.2590 -661.2060 hc        1 30P      0.116667
     35 H9       -624.2390  196.0590 -660.3530 hc        1 30P      0.116667
     36 H10      -623.5420  197.5990 -661.0140 hc        1 30P      0.116667
     37 H11      -624.3220  193.2400 -662.7620 hn        1 30P      0.294000
     38 H12      -626.7710  193.3270 -663.0100 ho        1 30P      0.276000
     39 H13      1150.9180 -349.2810    0.2690 ha        1 30P      0.185000
     40 H14      1149.4650 -347.6850    0.0320 ha        1 30P      0.203000
     41 H15      1149.5450 -352.5180    0.6940 h1        1 30P      0.184000
     42 H16      1148.0310 -352.1260    0.9420 DU        1 30P      0.114000
     43 H17      1148.0980 -350.4520    0.2380 DU        1 30P      0.125000
     44 H18      1146.7830 -350.8890    0.4060 ha        1 30P      0.125000
     45 H19      -621.9370  190.1760 -662.7060 hn        1 30P      0.215000
     46 H20      -622.6330  189.3120 -661.4500 hn        1 30P      0.215000
     47 H61      -622.2040  195.9080 -663.4310 hn        1 30P      0.222000
     48 H42      -624.7610  193.8100 -661.2420 hn        1 30P      0.294000
@<TRIPOS>BOND
     1    1    2 1   
     2    1    3 1   
     3    1   26 1   
     4    2    6 1   
     5    2   27 1   
     6    3    4 1   
     7    3   28 1   
     8    4    5 1   
     9    4   29 1   
    10    5    6 1   
    11    5   30 1   
    12    6    7 1   
    13    7    8 1   
    14    7   31 1   
    15    7   32 1   
    16    8    9 1   
    17    8   47 1   
    18    9   10 1   
    19    9   11 1   
    20    9   33 1   
    21   10   34 1   
    22   10   35 1   
    23   10   36 1   
    24   11   12 1   
    25   11   14 1   
    26   12   13 1   
    27   12   37 1   
    28   12   48 1   
    29   13   38 1   
    30   15   17 1   
    31   15   18 1   
    32   15   24 1   
    33   18   19 1   
    34   18   23 1   
    35   18   24 1   
    36   19   20 1   
    37   19   21 1   
    38   19   23 1   
    39   19   39 1   
    40   20   21 1   
    41   20   40 1   
    42   21   22 1   
    43   21   23 1   
    44   23   24 1   
    45   23   25 1   
    46   23   43 1   
    47   24   41 1   
    48   25   43 1   
    49   25   44 1   
    50   26   45 1   
    51   26   46 1   
@<TRIPOS>SUBSTRUCTURE
     1 30P         1 TEMP              0 ****  ****    0 ROOT
