@<TRIPOS>MOLECULE
30P
   46    47     1     0     0
SMALL
bcc


@<TRIPOS>ATOM
      1 C21         0.5830   -1.0120    0.2110 ca        1 30P      0.135600
      2 C20         1.8890   -0.4890    0.0770 ca        1 30P     -0.184000
      3 C22        -0.1020   -0.8140    1.4330 ca        1 30P     -0.186000
      4 C23         0.5020   -0.1070    2.4650 ca        1 30P     -0.092000
      5 C24         1.7900    0.4080    2.3240 ca        1 30P     -0.165000
      6 C19         2.4820    0.2150    1.1260 ca        1 30P     -0.078300
      7 C18         3.8970    0.6990    0.9580 c3        1 30P      0.268100
      8 N6          4.1440    2.0830    1.2740 n3        1 30P     -0.800500
      9 C1          3.8500    3.0670    0.2550 c3        1 30P      0.174500
     10 C28         2.6590    2.7580   -0.6470 c3        1 30P     -0.098100
     11 C2          5.0930    3.2650   -0.6500 c         1 30P      0.567100
     12 N4          5.8630    4.4380   -0.4210 n         1 30P     -0.367400
     13 O5          7.1230    4.3750   -0.8570 oh        1 30P     -0.439100
     14 O3          5.3530    2.4940   -1.5860 o         1 30P     -0.560100
     15 S7          4.8300    2.5730    2.6820 sy        1 30P      1.512200
     16 O8          5.2650    3.9110    2.4980 o         1 30P     -0.658300
     17 O9          3.9790    2.3340    3.7760 o         1 30P     -0.658300
     18 C10         6.1810    1.5810    2.8280 ca        1 30P     -0.406500
     19 C15         7.3580    1.8690    2.1240 ca        1 30P      0.012000
     20 C14         8.4950    1.0870    2.2760 ca        1 30P     -0.187000
     21 C13         8.4660   -0.0140    3.1540 ca        1 30P      0.191900
     22 F16         9.5730   -0.7740    3.3010 f         1 30P     -0.126900
     23 C12         7.2910   -0.3230    3.8810 ca        1 30P     -0.135300
     24 C11         6.1710    0.4860    3.7010 ca        1 30P      0.003000
     25 C17         7.2590   -1.4790    4.8030 c3        1 30P     -0.055800
     26 N1         -0.0490   -1.6370   -0.8700 nh        1 30P     -0.818200
     27 H1          2.4420   -0.6260   -0.8650 ha        1 30P      0.134000
     28 H2         -1.1200   -1.2100    1.5670 ha        1 30P      0.133000
     29 H3         -0.0430    0.0470    3.4090 ha        1 30P      0.135000
     30 H4          2.2520    0.9650    3.1560 ha        1 30P      0.159000
     31 H5          4.5510    0.0680    1.6350 h1        1 30P      0.064200
     32 H6          4.2330    0.5110   -0.1060 h1        1 30P      0.064200
     33 H7          3.6180    4.0450    0.7870 h1        1 30P      0.083700
     34 H8          2.8740    1.8800   -1.3040 hc        1 30P      0.060700
     35 H9          2.4620    3.6480   -1.2910 hc        1 30P      0.060700
     36 H10         1.7520    2.5350   -0.0360 hc        1 30P      0.060700
     37 H11         5.8770    4.7360    0.5540 hn        1 30P      0.336500
     38 H12         7.0780    4.5160   -1.8230 ho        1 30P      0.432000
     39 H13         7.3880    2.7400    1.4420 ha        1 30P      0.159000
     40 H14         9.4170    1.3170    1.7210 ha        1 30P      0.163000
     41 H15         5.2500    0.2670    4.2750 ha        1 30P      0.164000
     42 H16         6.3930   -1.4120    5.5050 hc        1 30P      0.055367
     43 H17         7.1720   -2.4310    4.2200 hc        1 30P      0.055367
     44 H18         8.2040   -1.5260    5.4020 hc        1 30P      0.055367
     45 H19        -0.7860   -2.2550   -0.6110 hn        1 30P      0.388800
     46 H20         0.5750   -2.0310   -1.5380 hn        1 30P      0.388800
@<TRIPOS>BOND
     1    1    2 ar  
     2    1    3 ar  
     3    1   26 1   
     4    2    6 ar  
     5    2   27 1   
     6    3    4 ar  
     7    3   28 1   
     8    4    5 ar  
     9    4   29 1   
    10    5    6 ar  
    11    5   30 1   
    12    6    7 1   
    13    7    8 1   
    14    7   31 1   
    15    7   32 1   
    16    8    9 1   
    17    8   15 1   
    18    9   10 1   
    19    9   11 1   
    20    9   33 1   
    21   10   34 1   
    22   10   35 1   
    23   10   36 1   
    24   11   12 1   
    25   11   14 2   
    26   12   13 1   
    27   12   37 1   
    28   13   38 1   
    29   15   16 2   
    30   15   17 2   
    31   15   18 1   
    32   18   19 ar  
    33   18   24 ar  
    34   19   20 ar  
    35   19   39 1   
    36   20   21 ar  
    37   20   40 1   
    38   21   22 1   
    39   21   23 ar  
    40   23   24 ar  
    41   23   25 1   
    42   24   41 1   
    43   25   42 1   
    44   25   43 1   
    45   25   44 1   
    46   26   45 1   
    47   26   46 1   
@<TRIPOS>SUBSTRUCTURE
     1 30P         1 TEMP              0 ****  ****    0 ROOT
