@<TRIPOS>MOLECULE
30P
   48    48     1     0     0
SMALL
bcc


@<TRIPOS>ATOM
      1 C21      -663.9230  127.3340 -434.1360 ca        1 30P      0.171600
      2 C20      -663.8790  128.4630 -434.9890 ca        1 30P     -0.249000
      3 C22      -664.4210  127.5070 -432.8160 ca        1 30P     -0.186000
      4 C23      -664.8510  128.7530 -432.3880 ca        1 30P     -0.075000
      5 C24      -664.8140  129.8600 -433.2430 ca        1 30P     -0.212000
      6 C19      -664.3110  129.7120 -434.5350 ca        1 30P     -0.100300
      7 C18      -664.1870  130.9060 -435.4430 c3        1 30P      0.206100
      8 N6       -665.0220  130.8160 -436.6240 n3        1 30P     -0.886200
      9 C1       -666.4040  131.1910 -436.5500 c3        1 30P      0.163500
     10 C28      -666.8660  132.0640 -435.3860 c3        1 30P     -0.139100
     11 C2       -667.3130  129.9410 -436.5320 c         1 30P      0.520100
     12 N4       -666.8520  128.7760 -435.6620 n4        1 30P     -0.463300
     13 O5       -667.7830  127.8190 -435.4560 oh        1 30P     -0.364300
     14 O3       -668.3690  129.7750 -437.1160 o         1 30P     -0.417100
     15 S7       1226.1940 -234.2360  799.7490 s4        1 30P      1.663300
     16 O8       1225.2880 -234.7920  800.5820 o         1 30P     -0.392400
     17 O9       1227.5070 -234.1410  800.0500 o         1 30P     -0.392400
     18 C10      1225.7090 -233.6880  798.4000 ca        1 30P     -0.666500
     19 C15      1224.3360 -233.7540  798.0150 ca        1 30P      0.062000
     20 C14      1223.8980 -233.2640  796.8080 ca        1 30P     -0.195000
     21 C13      1224.8220 -232.6730  795.9080 ca        1 30P      0.314900
     22 F16      1224.3920 -232.1990  794.7370 f         1 30P     -0.058900
     23 C12      1226.2050 -232.5870  796.2530 ca        1 30P     -0.123300
     24 C11      1226.6130 -233.0880  797.4720 ca        1 30P      0.048000
     25 C17      1227.1610 -231.9690  795.3060 c3        1 30P     -0.076800
     26 N1       -663.5850  126.0760 -434.6110 nh        1 30P     -0.829200
     27 H1       -663.4460  128.3770 -435.9990 ha        1 30P      0.149000
     28 H2       -664.4520  126.6520 -432.1220 ha        1 30P      0.159000
     29 H3       -665.2170  128.8770 -431.3550 ha        1 30P      0.158000
     30 H4       -665.1250  130.8470 -432.8700 ha        1 30P      0.148000
     31 H5       -664.3900  131.8470 -434.8520 h1        1 30P      0.075200
     32 H6       -663.1130  130.9590 -435.7940 h1        1 30P      0.075200
     33 H7       -666.7020  131.7080 -437.5210 h1        1 30P      0.122700
     34 H8       -667.9640  132.2550 -435.4680 hc        1 30P      0.077367
     35 H9       -666.3370  133.0500 -435.4290 hc        1 30P      0.077367
     36 H10      -666.6490  131.5890 -434.3980 hc        1 30P      0.077367
     37 H11      -665.9920  128.3450 -436.0720 hn        1 30P      0.498800
     38 H12      -668.3820  127.7740 -436.2410 ho        1 30P      0.477000
     39 H13      1223.6060 -234.2130  798.7130 ha        1 30P      0.185000
     40 H14      1222.8310 -233.3220  796.5240 ha        1 30P      0.203000
     41 H15      1227.6860 -233.0240  797.7460 ha        1 30P      0.184000
     42 H16      1226.8610 -230.9100  795.0920 hc        1 30P      0.082033
     43 H17      1228.2020 -231.9680  795.7130 hc        1 30P      0.082033
     44 H18      1227.1580 -232.5300  794.3350 hc        1 30P      0.082033
     45 H19      -662.9440  126.0520 -435.3720 hn        1 30P      0.419800
     46 H20      -663.4370  125.3740 -433.9210 hn        1 30P      0.419800
     47 H61      -664.5750  131.2090 -437.4290 hn        1 30P      0.426800
     48 H42      -666.5890  129.1360 -434.7130 hn        1 30P      0.498800
@<TRIPOS>BOND
     1    1    2 ar  
     2    1    3 ar  
     3    1   26 1   
     4    2    6 ar  
     5    2   27 1   
     6    3    4 ar  
     7    3   28 1   
     8    4    5 ar  
     9    4   29 1   
    10    5    6 ar  
    11    5   30 1   
    12    6    7 1   
    13    7    8 1   
    14    7   31 1   
    15    7   32 1   
    16    8    9 1   
    17    8   47 1   
    18    9   10 1   
    19    9   11 1   
    20    9   33 1   
    21   10   34 1   
    22   10   35 1   
    23   10   36 1   
    24   11   12 1   
    25   11   14 2   
    26   12   13 1   
    27   12   37 1   
    28   12   48 1   
    29   13   38 1   
    30   15   16 1   
    31   15   17 1   
    32   15   18 1   
    33   18   19 ar  
    34   18   24 ar  
    35   19   20 ar  
    36   19   39 1   
    37   20   21 ar  
    38   20   40 1   
    39   21   22 1   
    40   21   23 ar  
    41   23   24 ar  
    42   23   25 1   
    43   24   41 1   
    44   25   42 1   
    45   25   43 1   
    46   25   44 1   
    47   26   45 1   
    48   26   46 1   
@<TRIPOS>SUBSTRUCTURE
     1 30P         1 TEMP              0 ****  ****    0 ROOT
