@<TRIPOS>MOLECULE
30Q
   72    75     1     0     0
SMALL
bcc


@<TRIPOS>ATOM
      1 CAE         2.2330    0.1960   -0.2560 c3        1 30Q     -0.089100
      2 CCQ         0.7190    0.3170   -0.2930 c3        1 30Q     -0.043000
      3 CBH         0.1640    0.4990    1.1110 c3        1 30Q     -0.066400
      4 CBG         0.3960   -0.7450    1.9570 c3        1 30Q     -0.076400
      5 CCJ        -0.1320   -2.0260    1.3230 c3        1 30Q     -0.042700
      6 CCP         0.1650   -3.2810    2.1780 c3        1 30Q      0.008400
      7 CAD         1.6650   -3.5040    2.3840 c3        1 30Q     -0.082100
      8 CAU        -0.4390   -3.1090    3.5430 c2        1 30Q     -0.112200
      9 CAT        -1.3260   -3.9450    4.0910 ce        1 30Q     -0.233200
     10 CBV        -1.8200   -5.1370    3.3820 c         1 30Q      0.557500
     11 OAG        -2.6220   -5.9280    3.8940 o         1 30Q     -0.520100
     12 CAV        -1.3010   -5.3150    2.0180 ce        1 30Q     -0.241200
     13 CBZ        -0.4140   -4.4760    1.4580 c2        1 30Q     -0.048400
     14 CBC         0.0410   -4.6660    0.0510 c3        1 30Q     -0.052200
     15 CBD        -0.2320   -3.4210   -0.7690 c3        1 30Q     -0.072400
     16 CCH         0.3840   -2.1960   -0.1160 c3        1 30Q     -0.050700
     17 CCK         0.0250   -0.9390   -0.8820 c3        1 30Q     -0.061700
     18 CBF         0.3220   -0.8660   -2.3720 c3        1 30Q     -0.072400
     19 CBE         0.3390    0.6330   -2.6810 c3        1 30Q     -0.088400
     20 CCI         0.2960    1.3830   -1.3330 c3        1 30Q     -0.056700
     21 CCD         1.1300    2.6600   -1.3810 c3        1 30Q     -0.131700
     22 CAA         1.0580    3.4570   -0.0910 c3        1 30Q     -0.093100
     23 CBY         0.6300    3.5310   -2.5070 c         1 30Q      0.590700
     24 OAJ        -0.5120    3.9850   -2.6150 o         1 30Q     -0.548100
     25 SBU         1.9210    3.8620   -3.6280 ss        1 30Q     -0.183700
     26 CBA         1.1380    4.7480   -4.9310 c3        1 30Q     -0.080300
     27 CAY         0.7270    6.1300   -4.4590 c3        1 30Q      0.107800
     28 NBN        -0.1460    6.8460   -5.4410 n4        1 30Q     -0.690800
     29 CBW        -0.6200    8.1810   -4.8780 c         1 30Q      0.548100
     30 OAH         0.0710    9.1370   -5.1860 o         1 30Q     -0.394100
     31 CBB        -1.8690    8.1260   -4.0500 c3        1 30Q     -0.145400
     32 CAZ        -2.1100    9.4460   -3.3600 c3        1 30Q     -0.107100
     33 H1          2.6390    0.0630   -1.2880 hc        1 30Q      0.040033
     34 H2          2.6840    1.1140    0.1940 hc        1 30Q      0.040033
     35 H3          2.5560   -0.6760    0.3610 hc        1 30Q      0.040033
     36 H4         -0.9360    0.7140    1.0530 hc        1 30Q      0.043200
     37 H5          0.6510    1.3730    1.6160 hc        1 30Q      0.043200
     38 H6         -0.1170   -0.5830    2.9420 hc        1 30Q      0.048200
     39 H7          1.4930   -0.8520    2.1640 hc        1 30Q      0.048200
     40 H8         -1.2560   -1.9380    1.2680 hc        1 30Q      0.058700
     41 H9          1.8350   -4.4830    2.8930 hc        1 30Q      0.045367
     42 H10         2.0930   -2.6950    3.0230 hc        1 30Q      0.045367
     43 H11         2.2050   -3.5130    1.4090 hc        1 30Q      0.045367
     44 H12        -0.0650   -2.2400    4.1100 ha        1 30Q      0.131000
     45 H13        -1.7270   -3.7890    5.1060 ha        1 30Q      0.154000
     46 H14        -1.6990   -6.1850    1.4700 ha        1 30Q      0.153000
     47 H15         1.1420   -4.8920    0.0490 hc        1 30Q      0.059200
     48 H16        -0.4800   -5.5430   -0.4170 hc        1 30Q      0.059200
     49 H17        -1.3390   -3.2770   -0.8780 hc        1 30Q      0.048200
     50 H18         0.1950   -3.5490   -1.7990 hc        1 30Q      0.048200
     51 H19         1.5000   -2.3280   -0.1050 hc        1 30Q      0.058700
     52 H20        -1.0900   -0.7900   -0.7630 hc        1 30Q      0.052700
     53 H21         1.3100   -1.3330   -2.6080 hc        1 30Q      0.052700
     54 H22        -0.4600   -1.3970   -2.9670 hc        1 30Q      0.052700
     55 H23         1.2630    0.8980   -3.2520 hc        1 30Q      0.040700
     56 H24        -0.5450    0.9200   -3.3030 hc        1 30Q      0.040700
     57 H25        -0.7660    1.6810   -1.1120 hc        1 30Q      0.067700
     58 H26         2.2080    2.3910   -1.5890 hc        1 30Q      0.086700
     59 H27         1.5100    4.4690   -0.2290 hc        1 30Q      0.054367
     60 H28        -0.0020    3.5760    0.2370 hc        1 30Q      0.054367
     61 H29         1.6270    2.9280    0.7120 hc        1 30Q      0.054367
     62 H30         0.2500    4.1700   -5.2950 h1        1 30Q      0.106200
     63 H31         1.8880    4.8050   -5.7620 h1        1 30Q      0.106200
     64 H32         1.6370    6.7730   -4.2790 hx        1 30Q      0.121700
     65 H33         0.1400    6.0400   -3.4940 hx        1 30Q      0.121700
     66 H34         0.3870    7.0070   -6.3050 hn        1 30Q      0.457300
     67 H35        -2.7330    7.8860   -4.7330 hc        1 30Q      0.105200
     68 H36        -1.7900    7.3000   -3.2890 hc        1 30Q      0.105200
     69 H37        -3.0690    9.3890   -2.7870 hc        1 30Q      0.076033
     70 H38        -2.1850   10.2780   -4.1020 hc        1 30Q      0.076033
     71 H39        -1.2820    9.6820   -2.6480 hc        1 30Q      0.076033
     72 HBN2       -0.9570    6.2610   -5.6620 hn        1 30Q      0.457300
@<TRIPOS>BOND
     1    1    2 1   
     2    1   33 1   
     3    1   34 1   
     4    1   35 1   
     5    2    3 1   
     6    2   17 1   
     7    2   20 1   
     8    3    4 1   
     9    3   36 1   
    10    3   37 1   
    11    4    5 1   
    12    4   38 1   
    13    4   39 1   
    14    5    6 1   
    15    5   16 1   
    16    5   40 1   
    17    6    7 1   
    18    6    8 1   
    19    6   13 1   
    20    7   41 1   
    21    7   42 1   
    22    7   43 1   
    23    8    9 2   
    24    8   44 1   
    25    9   10 1   
    26    9   45 1   
    27   10   11 2   
    28   10   12 1   
    29   12   13 2   
    30   12   46 1   
    31   13   14 1   
    32   14   15 1   
    33   14   47 1   
    34   14   48 1   
    35   15   16 1   
    36   15   49 1   
    37   15   50 1   
    38   16   17 1   
    39   16   51 1   
    40   17   18 1   
    41   17   52 1   
    42   18   19 1   
    43   18   53 1   
    44   18   54 1   
    45   19   20 1   
    46   19   55 1   
    47   19   56 1   
    48   20   21 1   
    49   20   57 1   
    50   21   22 1   
    51   21   23 1   
    52   21   58 1   
    53   22   59 1   
    54   22   60 1   
    55   22   61 1   
    56   23   24 2   
    57   23   25 1   
    58   25   26 1   
    59   26   27 1   
    60   26   62 1   
    61   26   63 1   
    62   27   28 1   
    63   27   64 1   
    64   27   65 1   
    65   28   29 1   
    66   28   66 1   
    67   28   72 1   
    68   29   30 2   
    69   29   31 1   
    70   31   32 1   
    71   31   67 1   
    72   31   68 1   
    73   32   69 1   
    74   32   70 1   
    75   32   71 1   
@<TRIPOS>SUBSTRUCTURE
     1 30Q         1 TEMP              0 ****  ****    0 ROOT
