@<TRIPOS>MOLECULE
30Q
   72    75     1     0     0
SMALL
bcc


@<TRIPOS>ATOM
      1 CAE         2.2370    0.1460   -0.3420 c3        1 30Q     -0.089100
      2 CCQ         0.7270    0.3040   -0.3180 c3        1 30Q     -0.043000
      3 CBH         0.2340    0.5010    1.1070 c3        1 30Q     -0.066400
      4 CBG         0.4690   -0.7470    1.9460 c3        1 30Q     -0.076400
      5 CCJ        -0.1160   -2.0150    1.3370 c3        1 30Q     -0.042700
      6 CCP         0.1840   -3.2760    2.1820 c3        1 30Q      0.008400
      7 CAD         1.6850   -3.5360    2.3280 c3        1 30Q     -0.082100
      8 CAU        -0.3590   -3.0870    3.5690 c2        1 30Q     -0.112200
      9 CAT        -1.2450   -3.9000    4.1550 ce        1 30Q     -0.233200
     10 CBV        -1.7970   -5.0800    3.4680 c         1 30Q      0.557500
     11 OAG        -2.5980   -5.8490    4.0140 o         1 30Q     -0.520100
     12 CAV        -1.3380   -5.2730    2.0850 ce        1 30Q     -0.241200
     13 CBZ        -0.4530   -4.4570    1.4880 c2        1 30Q     -0.048400
     14 CBC        -0.0600   -4.6600    0.0650 c3        1 30Q     -0.052200
     15 CBD        -0.3350   -3.4110   -0.7470 c3        1 30Q     -0.072400
     16 CCH         0.3380   -2.2000   -0.1220 c3        1 30Q     -0.050700
     17 CCK        -0.0210   -0.9350   -0.8750 c3        1 30Q     -0.061700
     18 CBF         0.2170   -0.8710   -2.3760 c3        1 30Q     -0.072400
     19 CBE         0.2590    0.6260   -2.6890 c3        1 30Q     -0.088400
     20 CCI         0.2890    1.3780   -1.3420 c3        1 30Q     -0.056700
     21 CCD         1.1510    2.6340   -1.4270 c3        1 30Q     -0.131700
     22 CAA         1.1510    3.4340   -0.1370 c3        1 30Q     -0.093100
     23 CBY         0.6270    3.5170   -2.5330 c         1 30Q      0.590700
     24 OAJ        -0.5080    3.9970   -2.5970 o         1 30Q     -0.548100
     25 SBU         1.8800    3.8180   -3.7040 ss        1 30Q     -0.183700
     26 CBA         1.0670    4.7220   -4.9760 c3        1 30Q     -0.080300
     27 CAY         0.7050    6.1130   -4.4890 c3        1 30Q      0.107800
     28 NBN        -0.1900    6.8470   -5.4370 ny        1 30Q     -0.690800
     29 CBW        -0.6130    8.1920   -4.8560 c         1 30Q      0.548100
     30 OAH         0.0840    9.1320   -5.1920 o         1 30Q     -0.394100
     31 CBB        -1.8310    8.1620   -3.9800 c3        1 30Q     -0.145400
     32 CAZ        -2.0130    9.4860   -3.2770 c3        1 30Q     -0.107100
     33 H1          2.5640   -0.7330    0.2640 hc        1 30Q      0.040033
     34 H2          2.5980    0.0010   -1.3890 hc        1 30Q      0.040033
     35 H3          2.7290    1.0530    0.0870 hc        1 30Q      0.040033
     36 H4          0.7620    1.3630    1.5900 hc        1 30Q      0.043200
     37 H5         -0.8620    0.7430    1.0930 hc        1 30Q      0.043200
     38 H6         -0.0000   -0.5720    2.9500 hc        1 30Q      0.048200
     39 H7          1.5700   -0.8810    2.1090 hc        1 30Q      0.048200
     40 H8         -1.2390   -1.9000    1.3270 hc        1 30Q      0.058700
     41 H9          2.1590   -2.7370    2.9470 hc        1 30Q      0.045367
     42 H10         1.8510   -4.5190    2.8320 hc        1 30Q      0.045367
     43 H11         2.1860   -3.5610    1.3310 hc        1 30Q      0.045367
     44 H12         0.0590   -2.2280    4.1190 ha        1 30Q      0.131000
     45 H13        -1.6010   -3.7330    5.1840 ha        1 30Q      0.154000
     46 H14        -1.7800   -6.1340    1.5560 ha        1 30Q      0.153000
     47 H15        -0.6210   -5.5250   -0.3800 hc        1 30Q      0.059200
     48 H16         1.0340   -4.9140    0.0180 hc        1 30Q      0.059200
     49 H17         0.0470   -3.5500   -1.7920 hc        1 30Q      0.048200
     50 H18        -1.4420   -3.2390   -0.8120 hc        1 30Q      0.048200
     51 H19         1.4500   -2.3590   -0.1550 hc        1 30Q      0.058700
     52 H20        -1.1260   -0.7590   -0.7130 hc        1 30Q      0.052700
     53 H21         1.1830   -1.3640   -2.6510 hc        1 30Q      0.052700
     54 H22        -0.6000   -1.3840   -2.9390 hc        1 30Q      0.052700
     55 H23        -0.6410    0.9340   -3.2760 hc        1 30Q      0.040700
     56 H24         1.1660    0.8680   -3.2980 hc        1 30Q      0.040700
     57 H25        -0.7560    1.7030   -1.0790 hc        1 30Q      0.067700
     58 H26         2.2130    2.3390   -1.6780 hc        1 30Q      0.086700
     59 H27         1.7390    2.8930    0.6440 hc        1 30Q      0.054367
     60 H28         1.6210    4.4350   -0.2950 hc        1 30Q      0.054367
     61 H29         0.1080    3.5800    0.2340 hc        1 30Q      0.054367
     62 H30         1.7860    4.7620   -5.8350 h1        1 30Q      0.106200
     63 H31         0.1540    4.1630   -5.3060 h1        1 30Q      0.106200
     64 H32         1.6360    6.7360   -4.3470 hx        1 30Q      0.121700
     65 H33         0.1560    6.0350   -3.5020 hx        1 30Q      0.121700
     66 H34         0.3110    6.9970   -6.3220 hn        1 30Q      0.457300
     67 H35        -1.7410    7.3320   -3.2240 hc        1 30Q      0.105200
     68 H36        -2.7250    7.9440   -4.6280 hc        1 30Q      0.105200
     69 H37        -2.9500    9.4490   -2.6670 hc        1 30Q      0.076033
     70 H38        -2.0980   10.3220   -4.0140 hc        1 30Q      0.076033
     71 H39        -1.1530    9.7000   -2.5980 hc        1 30Q      0.076033
     72 HBN2       -1.0220    6.2790   -5.6250 hn        1 30Q      0.457300
@<TRIPOS>BOND
     1    1    2 1   
     2    1   33 1   
     3    1   34 1   
     4    1   35 1   
     5    2    3 1   
     6    2   17 1   
     7    2   20 1   
     8    3    4 1   
     9    3   36 1   
    10    3   37 1   
    11    4    5 1   
    12    4   38 1   
    13    4   39 1   
    14    5    6 1   
    15    5   16 1   
    16    5   40 1   
    17    6    7 1   
    18    6    8 1   
    19    6   13 1   
    20    7   41 1   
    21    7   42 1   
    22    7   43 1   
    23    8    9 2   
    24    8   44 1   
    25    9   10 1   
    26    9   45 1   
    27   10   11 2   
    28   10   12 1   
    29   12   13 2   
    30   12   46 1   
    31   13   14 1   
    32   14   15 1   
    33   14   47 1   
    34   14   48 1   
    35   15   16 1   
    36   15   49 1   
    37   15   50 1   
    38   16   17 1   
    39   16   51 1   
    40   17   18 1   
    41   17   52 1   
    42   18   19 1   
    43   18   53 1   
    44   18   54 1   
    45   19   20 1   
    46   19   55 1   
    47   19   56 1   
    48   20   21 1   
    49   20   57 1   
    50   21   22 1   
    51   21   23 1   
    52   21   58 1   
    53   22   59 1   
    54   22   60 1   
    55   22   61 1   
    56   23   24 2   
    57   23   25 1   
    58   25   26 1   
    59   26   27 1   
    60   26   62 1   
    61   26   63 1   
    62   27   28 1   
    63   27   64 1   
    64   27   65 1   
    65   28   29 1   
    66   28   66 1   
    67   28   72 1   
    68   29   30 2   
    69   29   31 1   
    70   31   32 1   
    71   31   67 1   
    72   31   68 1   
    73   32   69 1   
    74   32   70 1   
    75   32   71 1   
@<TRIPOS>SUBSTRUCTURE
     1 30Q         1 TEMP              0 ****  ****    0 ROOT
