@<TRIPOS>MOLECULE
30Q
   72    75     1     0     0
SMALL
bcc


@<TRIPOS>ATOM
      1 CAE         2.2320    0.1320   -0.3350 c3        1 30Q     -0.089100
      2 CCQ         0.7230    0.3000   -0.3150 c3        1 30Q     -0.043000
      3 CBH         0.2280    0.5040    1.1090 c3        1 30Q     -0.066400
      4 CBG         0.4530   -0.7430    1.9510 c3        1 30Q     -0.076400
      5 CCJ        -0.1380   -2.0090    1.3440 c3        1 30Q     -0.042700
      6 CCP         0.1530   -3.2700    2.1930 c3        1 30Q      0.008400
      7 CAD         1.6520   -3.5390    2.3430 c3        1 30Q     -0.082100
      8 CAU        -0.3930   -3.0740    3.5790 c2        1 30Q     -0.112200
      9 CAT        -1.2840   -3.8800    4.1650 ce        1 30Q     -0.233200
     10 CBV        -1.8420   -5.0580    3.4810 c         1 30Q      0.557500
     11 OAG        -2.6490   -5.8210    4.0270 o         1 30Q     -0.520100
     12 CAV        -1.3820   -5.2570    2.0990 ce        1 30Q     -0.241200
     13 CBZ        -0.4910   -4.4480    1.5020 c2        1 30Q     -0.048400
     14 CBC        -0.0960   -4.6580    0.0800 c3        1 30Q     -0.052200
     15 CBD        -0.3620   -3.4090   -0.7360 c3        1 30Q     -0.072400
     16 CCH         0.3170   -2.2000   -0.1130 c3        1 30Q     -0.050700
     17 CCK        -0.0310   -0.9360   -0.8700 c3        1 30Q     -0.061700
     18 CBF         0.2100   -0.8770   -2.3710 c3        1 30Q     -0.072400
     19 CBE         0.2610    0.6190   -2.6880 c3        1 30Q     -0.088400
     20 CCI         0.2940    1.3750   -1.3430 c3        1 30Q     -0.056700
     21 CCD         1.1640    2.6250   -1.4290 c3        1 30Q     -0.131700
     22 CAA         1.1660    3.4280   -0.1420 c3        1 30Q     -0.093100
     23 CBY         0.6470    3.5080   -2.5390 c         1 30Q      0.590700
     24 OAJ        -0.4840    3.9940   -2.6070 o         1 30Q     -0.548100
     25 SBU         1.9050    3.7970   -3.7090 ss        1 30Q     -0.183700
     26 CBA         1.1010    4.7020   -4.9850 c3        1 30Q     -0.080300
     27 CAY         0.7460    6.0970   -4.5040 c3        1 30Q      0.107800
     28 NBN        -0.1420    6.8340   -5.4560 n4        1 30Q     -0.690800
     29 CBW        -0.5560    8.1840   -4.8800 c         1 30Q      0.548100
     30 OAH         0.1480    9.1180   -5.2170 o         1 30Q     -0.394100
     31 CBB        -1.7760    8.1650   -4.0060 c3        1 30Q     -0.145400
     32 CAZ        -1.9500    9.4920   -3.3080 c3        1 30Q     -0.107100
     33 H1          2.5520   -0.7470    0.2740 hc        1 30Q      0.040033
     34 H2          2.5940   -0.0180   -1.3820 hc        1 30Q      0.040033
     35 H3          2.7280    1.0380    0.0930 hc        1 30Q      0.040033
     36 H4         -0.8660    0.7530    1.0910 hc        1 30Q      0.043200
     37 H5          0.7610    1.3640    1.5900 hc        1 30Q      0.043200
     38 H6          1.5540   -0.8830    2.1170 hc        1 30Q      0.048200
     39 H7         -0.0160   -0.5620    2.9540 hc        1 30Q      0.048200
     40 H8         -1.2600   -1.8870    1.3310 hc        1 30Q      0.058700
     41 H9          2.1290   -2.7410    2.9610 hc        1 30Q      0.045367
     42 H10         2.1540   -3.5690    1.3470 hc        1 30Q      0.045367
     43 H11         1.8100   -4.5210    2.8500 hc        1 30Q      0.045367
     44 H12         0.0300   -2.2150    4.1270 ha        1 30Q      0.131000
     45 H13        -1.6410   -3.7070    5.1940 ha        1 30Q      0.154000
     46 H14        -1.8270   -6.1170    1.5710 ha        1 30Q      0.153000
     47 H15         0.9970   -4.9180    0.0360 hc        1 30Q      0.059200
     48 H16        -0.6610   -5.5200   -0.3640 hc        1 30Q      0.059200
     49 H17        -1.4670   -3.2300   -0.8040 hc        1 30Q      0.048200
     50 H18         0.0210   -3.5530   -1.7800 hc        1 30Q      0.048200
     51 H19         1.4290   -2.3670   -0.1440 hc        1 30Q      0.058700
     52 H20        -1.1360   -0.7520   -0.7110 hc        1 30Q      0.052700
     53 H21         1.1730   -1.3770   -2.6430 hc        1 30Q      0.052700
     54 H22        -0.6100   -1.3870   -2.9340 hc        1 30Q      0.052700
     55 H23        -0.6360    0.9310   -3.2770 hc        1 30Q      0.040700
     56 H24         1.1710    0.8530   -3.2950 hc        1 30Q      0.040700
     57 H25        -0.7500    1.7070   -1.0830 hc        1 30Q      0.067700
     58 H26         2.2240    2.3220   -1.6770 hc        1 30Q      0.086700
     59 H27         1.7480    2.8850    0.6420 hc        1 30Q      0.054367
     60 H28         0.1230    3.5820    0.2270 hc        1 30Q      0.054367
     61 H29         1.6430    4.4260   -0.3010 hc        1 30Q      0.054367
     62 H30         1.8210    4.7350   -5.8430 h1        1 30Q      0.106200
     63 H31         0.1840    4.1480   -5.3150 h1        1 30Q      0.106200
     64 H32         1.6810    6.7140   -4.3610 hx        1 30Q      0.121700
     65 H33         0.1950    6.0260   -3.5180 hx        1 30Q      0.121700
     66 H34         0.3630    6.9780   -6.3400 hn        1 30Q      0.457300
     67 H35        -2.6710    7.9520   -4.6560 hc        1 30Q      0.105200
     68 H36        -1.6940    7.3370   -3.2480 hc        1 30Q      0.105200
     69 H37        -2.0270   10.3270   -4.0480 hc        1 30Q      0.076033
     70 H38        -2.8890    9.4640   -2.7000 hc        1 30Q      0.076033
     71 H39        -1.0900    9.7030   -2.6270 hc        1 30Q      0.076033
     72 HBN2       -0.9770    6.2710   -5.6430 hn        1 30Q      0.457300
@<TRIPOS>BOND
     1    1    2 1   
     2    1   33 1   
     3    1   34 1   
     4    1   35 1   
     5    2    3 1   
     6    2   17 1   
     7    2   20 1   
     8    3    4 1   
     9    3   36 1   
    10    3   37 1   
    11    4    5 1   
    12    4   38 1   
    13    4   39 1   
    14    5    6 1   
    15    5   16 1   
    16    5   40 1   
    17    6    7 1   
    18    6    8 1   
    19    6   13 1   
    20    7   41 1   
    21    7   42 1   
    22    7   43 1   
    23    8    9 2   
    24    8   44 1   
    25    9   10 1   
    26    9   45 1   
    27   10   11 2   
    28   10   12 1   
    29   12   13 2   
    30   12   46 1   
    31   13   14 1   
    32   14   15 1   
    33   14   47 1   
    34   14   48 1   
    35   15   16 1   
    36   15   49 1   
    37   15   50 1   
    38   16   17 1   
    39   16   51 1   
    40   17   18 1   
    41   17   52 1   
    42   18   19 1   
    43   18   53 1   
    44   18   54 1   
    45   19   20 1   
    46   19   55 1   
    47   19   56 1   
    48   20   21 1   
    49   20   57 1   
    50   21   22 1   
    51   21   23 1   
    52   21   58 1   
    53   22   59 1   
    54   22   60 1   
    55   22   61 1   
    56   23   24 2   
    57   23   25 1   
    58   25   26 1   
    59   26   27 1   
    60   26   62 1   
    61   26   63 1   
    62   27   28 1   
    63   27   64 1   
    64   27   65 1   
    65   28   29 1   
    66   28   66 1   
    67   28   72 1   
    68   29   30 2   
    69   29   31 1   
    70   31   32 1   
    71   31   67 1   
    72   31   68 1   
    73   32   69 1   
    74   32   70 1   
    75   32   71 1   
@<TRIPOS>SUBSTRUCTURE
     1 30Q         1 TEMP              0 ****  ****    0 ROOT
