@<TRIPOS>MOLECULE
30R
   49    50     1     0     0
SMALL
bcc


@<TRIPOS>ATOM
      1 C1          1.2400    0.1020   -0.0590 c3        1 30R      0.186500
      2 C2          2.0680   -0.2400    1.2040 c         1 30R      0.561100
      3 C3          3.2500   -1.0920   -6.5120 c3        1 30R      0.201100
      4 O3          2.6570    0.5990    1.9010 o         1 30R     -0.550100
      5 N4          2.2500   -1.6350    1.4690 n         1 30R     -0.353400
      6 N5          2.6590   -2.4080   -6.6110 n3        1 30R     -0.916800
      7 C10         0.9570    3.4570    0.7970 ca        1 30R     -0.391500
      8 C11         2.1430    4.1390    1.0870 ca        1 30R      0.020000
      9 C12         2.3510    4.7730    2.3120 ca        1 30R     -0.129300
     10 C13         1.3200    4.7160    3.2780 ca        1 30R      0.191900
     11 C14         0.1150    4.0420    2.9990 ca        1 30R     -0.189000
     12 C15        -0.0510    3.4220    1.7690 ca        1 30R      0.002000
     13 C17         3.6220    5.4740    2.5980 c3        1 30R     -0.054800
     14 C18         2.9370    1.3490   -1.2570 c3        1 30R      0.258100
     15 C19         2.9900    0.6980   -2.6110 ca        1 30R     -0.120300
     16 C20         3.4360   -0.6190   -2.7480 ca        1 30R     -0.119500
     17 C21         3.5140   -1.2050   -4.0100 ca        1 30R     -0.120500
     18 C22         3.1380   -0.4800   -5.1460 ca        1 30R     -0.085300
     19 C23         2.6860    0.8360   -5.0060 ca        1 30R     -0.120500
     20 C24         2.6130    1.4240   -3.7450 ca        1 30R     -0.119500
     21 C28        -0.2340   -0.0280    0.3240 c3        1 30R     -0.124100
     22 N6          1.6200    1.3620   -0.6500 n3        1 30R     -0.788500
     23 O5          2.5930   -1.9220    2.7280 oh        1 30R     -0.436100
     24 S7          0.7260    2.7400   -0.7080 sy        1 30R      1.510200
     25 O8         -0.6460    2.4410   -0.8520 o         1 30R     -0.653800
     26 O9          1.2780    3.5880   -1.6970 o         1 30R     -0.653800
     27 F16         1.4790    5.3160    4.4790 f         1 30R     -0.129900
     28 H1          1.4680   -0.6990   -0.8360 h1        1 30R      0.083700
     29 H2          4.3480   -1.2010   -6.7590 h1        1 30R      0.035700
     30 H3          2.8150   -0.3690   -7.2670 h1        1 30R      0.035700
     31 H4          1.4290   -2.1870    1.2450 hn        1 30R      0.297500
     32 H5          2.6120   -2.6920   -7.5690 hn        1 30R      0.352300
     33 H6          1.7410   -2.4240   -6.2150 hn        1 30R      0.352300
     34 H8          2.9370    4.1880    0.3190 ha        1 30R      0.148000
     35 H9         -0.6790    4.0140    3.7590 ha        1 30R      0.156000
     36 H10        -1.0020    2.9050    1.5440 ha        1 30R      0.159000
     37 H11         4.1180    5.8060    1.6540 hc        1 30R      0.054367
     38 H12         4.3200    4.7880    3.1430 hc        1 30R      0.054367
     39 H13         3.4420    6.3700    3.2430 hc        1 30R      0.054367
     40 H14         3.6540    0.8220   -0.5610 h1        1 30R      0.068200
     41 H15         3.2890    2.4190   -1.3610 h1        1 30R      0.068200
     42 H16         3.7380   -1.1950   -1.8590 ha        1 30R      0.147500
     43 H17         3.8710   -2.2410   -4.1160 ha        1 30R      0.142000
     44 H18         2.3880    1.4150   -5.8940 ha        1 30R      0.142000
     45 H19         2.2570    2.4640   -3.6340 ha        1 30R      0.147500
     46 H20        -0.4260   -1.0610    0.7020 hc        1 30R      0.064367
     47 H21        -0.8910    0.1500   -0.5650 hc        1 30R      0.064367
     48 H22        -0.5150    0.7040    1.1200 hc        1 30R      0.064367
     49 H23         3.5210   -1.6280    2.8250 ho        1 30R      0.436000
@<TRIPOS>BOND
     1    1    2 1   
     2    1   21 1   
     3    1   22 1   
     4    1   28 1   
     5    2    4 2   
     6    2    5 1   
     7    3    6 1   
     8    3   18 1   
     9    3   29 1   
    10    3   30 1   
    11    5   23 1   
    12    5   31 1   
    13    6   32 1   
    14    6   33 1   
    15    7    8 ar  
    16    7   12 ar  
    17    7   24 1   
    18    8    9 ar  
    19    8   34 1   
    20    9   10 ar  
    21    9   13 1   
    22   10   11 ar  
    23   10   27 1   
    24   11   12 ar  
    25   11   35 1   
    26   12   36 1   
    27   13   37 1   
    28   13   38 1   
    29   13   39 1   
    30   14   15 1   
    31   14   22 1   
    32   14   40 1   
    33   14   41 1   
    34   15   16 ar  
    35   15   20 ar  
    36   16   17 ar  
    37   16   42 1   
    38   17   18 ar  
    39   17   43 1   
    40   18   19 ar  
    41   19   20 ar  
    42   19   44 1   
    43   20   45 1   
    44   21   46 1   
    45   21   47 1   
    46   21   48 1   
    47   22   24 1   
    48   23   49 1   
    49   24   25 2   
    50   24   26 2   
@<TRIPOS>SUBSTRUCTURE
     1 30R         1 TEMP              0 ****  ****    0 ROOT
