@<TRIPOS>MOLECULE
30R
   52    53     1     0     0
SMALL
bcc


@<TRIPOS>ATOM
      1 C1          1.5300    0.0000    0.0000 c3        1 30R      0.020500
      2 C2          2.0330    0.0000    1.4210 c         1 30R      0.298100
      3 C3          2.9720   -1.1590   -6.5850 c3        1 30R      0.026100
      4 O3          2.3130    1.0480    1.9640 o         1 30R     -0.340100
      5 N4          2.1700   -1.1630    2.0870 ny        1 30R      0.426700
      6 N5          1.5910   -1.5930   -6.8330 nz        1 30R      0.087400
      7 C10         1.1270    3.3120    0.8250 ca        1 30R     -0.239500
      8 C11         2.0990    4.2530    1.1090 ca        1 30R      0.024000
      9 C12         2.1380    4.8520    2.3540 ca        1 30R     -0.100300
     10 C13         1.2030    4.5100    3.3160 ca        1 30R      0.240900
     11 C14         0.2300    3.5690    3.0310 ca        1 30R     -0.122000
     12 C15         0.1930    2.9700    1.7860 ca        1 30R     -0.012000
     13 C17         3.1990    5.8770    2.6640 c3        1 30R      0.055200
     14 C18         3.3420    1.1900   -1.3180 c3        1 30R      0.185100
     15 C19         3.2450    0.5760   -2.6920 ca        1 30R     -0.163300
     16 C20         3.4550   -0.7790   -2.8590 ca        1 30R     -0.053500
     17 C21         3.3660   -1.3410   -4.1200 ca        1 30R     -0.042500
     18 C22         3.0680   -0.5470   -5.2120 ca        1 30R     -0.148300
     19 C23         2.8580    0.8090   -5.0430 ca        1 30R     -0.042500
     20 C24         2.9420    1.3700   -3.7820 ca        1 30R     -0.053500
     21 C28         0.0000    0.0000    0.0000 c3        1 30R     -0.059100
     22 N6          2.0180    1.1960   -0.6910 nx        1 30R     -0.248300
     23 O5          2.6430   -1.1620    3.4220 oh        1 30R     -0.416300
     24 S7          1.0740    2.5530   -0.7640 sy        1 30R      0.956200
     25 O8         -0.2610    2.1040   -0.9490 o         1 30R     -0.484800
     26 O9          1.7240    3.4470   -1.6570 o         1 30R     -0.484800
     27 F16         1.2420    5.0960    4.5330 f         1 30R     -0.076900
     28 H1          1.8910   -0.8850   -0.5110 hx        1 30R      0.086700
     29 H2          3.2590   -0.4250   -7.3280 hx        1 30R      0.100200
     30 H3          3.6350   -2.0140   -6.6460 hx        1 30R      0.100200
     31 H4          1.2700   -1.6000    2.0970 hn        1 30R      0.248800
     32 H5          1.5230   -1.9830   -7.7520 hn        1 30R      0.228800
     33 H6          1.3310   -2.2840   -6.1570 hn        1 30R      0.228800
     34 H8          2.7960    4.5600    0.3390 ha        1 30R      0.137000
     35 H9         -0.5010    3.3000    3.7830 ha        1 30R      0.154000
     36 H10        -0.5690    2.2320    1.5620 ha        1 30R      0.120000
     37 H11         4.0740    5.3820    3.0670 hc        1 30R      0.038700
     38 H12         2.8170    6.5840    3.3910 hc        1 30R      0.038700
     39 H13         3.4680    6.4040    1.7560 hc        1 30R      0.038700
     40 H14         3.7070    2.2070   -1.4020 hx        1 30R      0.083200
     41 H15         4.0270    0.6100   -0.7110 hx        1 30R      0.083200
     42 H16         3.6880   -1.4010   -2.0040 ha        1 30R      0.129500
     43 H17         3.5620   -2.3980   -4.2560 ha        1 30R      0.135500
     44 H18         2.6210    1.4300   -5.8980 ha        1 30R      0.135500
     45 H19         2.8050    2.4370   -3.6540 ha        1 30R      0.129500
     46 H20        -0.3610   -0.9550    0.3610 hc        1 30R      0.079700
     47 H21        -0.3610    0.7900    0.6470 hc        1 30R      0.079700
     48 H22        -0.3610    0.1650   -1.0080 hc        1 30R      0.079700
     49 H23         2.6980   -2.0490    3.7370 ho        1 30R      0.499000
     50 H42         2.8000   -1.7300    1.5560 hn        1 30R      0.248800
     51 H53         0.9760   -0.8060   -6.7590 hn        1 30R      0.228800
     52 H61         2.4230    1.5240    0.1630 hn        1 30R      0.336800
@<TRIPOS>BOND
     1    1    2 1   
     2    1   21 1   
     3    1   22 1   
     4    1   28 1   
     5    2    4 2   
     6    2    5 1   
     7    3    6 1   
     8    3   18 1   
     9    3   29 1   
    10    3   30 1   
    11    5   23 1   
    12    5   31 1   
    13    5   50 1   
    14    6   32 1   
    15    6   33 1   
    16    6   51 1   
    17    7    8 ar  
    18    7   12 ar  
    19    7   24 1   
    20    8    9 ar  
    21    8   34 1   
    22    9   10 ar  
    23    9   13 1   
    24   10   11 ar  
    25   10   27 1   
    26   11   12 ar  
    27   11   35 1   
    28   12   36 1   
    29   13   37 1   
    30   13   38 1   
    31   13   39 1   
    32   14   15 1   
    33   14   22 1   
    34   14   40 1   
    35   14   41 1   
    36   15   16 ar  
    37   15   20 ar  
    38   16   17 ar  
    39   16   42 1   
    40   17   18 ar  
    41   17   43 1   
    42   18   19 ar  
    43   19   20 ar  
    44   19   44 1   
    45   20   45 1   
    46   21   46 1   
    47   21   47 1   
    48   21   48 1   
    49   22   24 1   
    50   22   52 1   
    51   23   49 1   
    52   24   25 2   
    53   24   26 2   
@<TRIPOS>SUBSTRUCTURE
     1 30R         1 TEMP              0 ****  ****    0 ROOT
