@<TRIPOS>MOLECULE
30S
   37    37     1     0     0
SMALL
bcc


@<TRIPOS>ATOM
      1 C1         -2.5560   -0.1650   -1.1620 c1        1 30S     -0.168500
      2 C2          3.1230   -0.3200    0.9980 c2        1 30S     -0.306100
      3 C3          2.2960   -0.1410    1.9840 c1        1 30S      0.115200
      4 C4          1.4980    0.0210    3.0000 ce        1 30S     -0.271200
      5 C5          0.0820    0.2850    2.8340 ce        1 30S     -0.059000
      6 C6         -2.0670   -0.2680   -0.0750 c1        1 30S     -0.168500
      7 C7         -0.8490   -0.4350    3.4810 c2        1 30S     -0.034900
      8 O1         -2.2040   -0.1230    3.2630 os        1 30S     -0.297200
      9 C8         -2.9210    0.2350    4.3800 c2        1 30S      0.222900
     10 C9         -2.2370    0.1850    5.7260 c3        1 30S     -0.080000
     11 C10        -3.0080    1.0090    6.7090 c2        1 30S     -0.178300
     12 C11        -4.3130    1.0290    6.5050 c1        1 30S     -0.115800
     13 C12        -5.0690    0.6340    5.4500 cc        1 30S      0.195500
     14 C13        -4.2500    0.5520    4.2060 cc        1 30S     -0.371600
     15 C14        -5.0280    0.5960    2.9610 cc        1 30S      0.773500
     16 N1         -6.3490    0.3560    2.9560 nd        1 30S     -0.846000
     17 C15        -6.9680    0.1400    4.2150 cd        1 30S      0.832200
     18 N2         -6.4120    0.3190    5.4340 nc        1 30S     -0.675300
     19 N3         -8.2990   -0.3310    4.1550 nh        1 30S     -0.873800
     20 N4         -4.4020    0.9710    1.7900 nh        1 30S     -0.902800
     21 S1          2.1340   -0.0070    4.7100 s6        1 30S      1.453700
     22 O2          2.7900    1.2250    4.8580 o         1 30S     -0.735533
     23 O3          0.9570   -0.1310    5.4890 o         1 30S     -0.735533
     24 H1          3.3570   -1.3190    0.6060 ha        1 30S      0.126500
     25 H2         -2.9870   -0.0730   -2.1260 ha        1 30S      0.168500
     26 H3          3.6550    0.5160    0.5230 ha        1 30S      0.126500
     27 H4         -0.1980    1.1220    2.1720 ha        1 30S      0.123000
     28 H6         -1.6230   -0.3670    0.8900 ha        1 30S      0.168500
     29 H5         -0.6680   -1.2610    4.1840 h4        1 30S      0.184000
     30 H7         -2.1270   -0.8940    6.0220 hc        1 30S      0.126200
     31 H8         -1.1830    0.5960    5.6530 hc        1 30S      0.126200
     32 H9         -2.4570    1.5990    7.4470 ha        1 30S      0.148000
     33 H10        -8.8310   -0.1720    4.9820 hn        1 30S      0.403300
     34 H11        -8.7810   -0.1120    3.3130 hn        1 30S      0.403300
     35 H12        -4.8870    0.8640    0.9300 hn        1 30S      0.431800
     36 H13        -3.4120    0.8850    1.7560 hn        1 30S      0.431800
     37 O4          2.9660   -1.1370    4.7650 o         1 30S     -0.735533
@<TRIPOS>BOND
     1    1    6 3   
     2    1   25 1   
     3    2    3 2   
     4    2   24 1   
     5    2   26 1   
     6    3    4 2   
     7    4    5 1   
     8    4   21 1   
     9    5    7 2   
    10    5   27 1   
    11    6   28 1   
    12    7    8 1   
    13    7   29 1   
    14    8    9 1   
    15    9   10 1   
    16    9   14 2   
    17   10   11 1   
    18   10   30 1   
    19   10   31 1   
    20   11   12 2   
    21   11   32 1   
    22   12   13 2   
    23   13   14 1   
    24   13   18 1   
    25   14   15 1   
    26   15   16 2   
    27   15   20 1   
    28   16   17 1   
    29   17   18 2   
    30   17   19 1   
    31   19   33 1   
    32   19   34 1   
    33   20   35 1   
    34   20   36 1   
    35   21   22 1   
    36   21   23 1   
    37   21   37 1   
@<TRIPOS>SUBSTRUCTURE
     1 30S         1 TEMP              0 ****  ****    0 ROOT
