@<TRIPOS>MOLECULE
30S
   37    37     1     0     0
SMALL
bcc


@<TRIPOS>ATOM
      1 C1         -2.5300   -0.2610   -1.2230 c1        1 30S     -0.168000
      2 C2          3.1330   -0.2410    1.0800 c2        1 30S     -0.304100
      3 C3          2.2740   -0.1000    2.0440 c1        1 30S      0.116200
      4 C4          1.4420    0.0230    3.0390 ce        1 30S     -0.275200
      5 C5          0.0300    0.2840    2.8370 ce        1 30S     -0.052000
      6 C6         -2.0470   -0.3250   -0.1310 c1        1 30S     -0.168000
      7 C7         -0.9130   -0.4600    3.4370 c2        1 30S     -0.039900
      8 O1         -2.2660   -0.1530    3.1960 os        1 30S     -0.291200
      9 C8         -2.9980    0.2040    4.3010 c2        1 30S      0.234900
     10 C9         -2.3250    0.1920    5.6500 c3        1 30S     -0.100000
     11 C10        -3.1070    1.0130    6.6260 c2        1 30S     -0.135300
     12 C11        -4.4160    1.0550    6.4320 c1        1 30S     -0.246800
     13 C12        -5.1270    0.6140    5.3550 cc        1 30S      0.215900
     14 C13        -4.3320    0.4950    4.1150 cc        1 30S     -0.362600
     15 C14        -5.1170    0.5220    2.8670 cc        1 30S      0.756500
     16 N1         -6.4280    0.2830    2.8430 nd        1 30S     -0.774000
     17 C15        -7.1300    0.0430    4.0580 cd        1 30S      0.860200
     18 N2         -6.4590    0.2970    5.3140 na        1 30S     -0.763000
     19 N3         -8.3690   -0.3810    3.9950 n2        1 30S     -0.835100
     20 N4         -4.4780    0.8850    1.6930 nv        1 30S     -0.898800
     21 S1          2.0250   -0.0600    4.7660 s6        1 30S      1.453700
     22 O2          2.7010    1.1530    4.9660 o         1 30S     -0.735867
     23 O3          0.8200   -0.1770    5.5050 o         1 30S     -0.735867
     24 H1          3.3870   -1.2260    0.6640 ha        1 30S      0.127500
     25 H2         -2.9580   -0.2020   -2.1910 ha        1 30S      0.168000
     26 H3          3.6730    0.6130    0.6510 ha        1 30S      0.127500
     27 H4         -0.2360    1.1370    2.1910 ha        1 30S      0.125000
     28 H6         -1.6070   -0.3890    0.8400 ha        1 30S      0.168000
     29 H5         -0.7470   -1.3040    4.1220 h4        1 30S      0.183000
     30 H7         -1.2750    0.6140    5.5720 hc        1 30S      0.131200
     31 H8         -2.1930   -0.8780    5.9700 hc        1 30S      0.131200
     32 H9         -2.5550    1.5800    7.3830 ha        1 30S      0.147000
     33 H10        -6.9610    0.2640    6.1690 hn        1 30S      0.443800
     34 H11        -8.8190   -0.5050    4.8770 hn        1 30S      0.372400
     35 H12        -4.9640    0.7550    0.8350 hn        1 30S      0.429300
     36 H13        -3.4920    0.7580    1.6610 hn        1 30S      0.429300
     37 O4          2.8280   -1.2100    4.8190 o         1 30S     -0.735867
@<TRIPOS>BOND
     1    1    6 3   
     2    1   25 1   
     3    2    3 2   
     4    2   24 1   
     5    2   26 1   
     6    3    4 2   
     7    4    5 1   
     8    4   21 1   
     9    5    7 2   
    10    5   27 1   
    11    6   28 1   
    12    7    8 1   
    13    7   29 1   
    14    8    9 1   
    15    9   10 1   
    16    9   14 2   
    17   10   11 1   
    18   10   30 1   
    19   10   31 1   
    20   11   12 2   
    21   11   32 1   
    22   12   13 2   
    23   13   14 1   
    24   13   18 1   
    25   14   15 1   
    26   15   16 2   
    27   15   20 1   
    28   16   17 1   
    29   17   18 1   
    30   17   19 2   
    31   18   33 1   
    32   19   34 1   
    33   20   35 1   
    34   20   36 1   
    35   21   22 1   
    36   21   23 1   
    37   21   37 1   
@<TRIPOS>SUBSTRUCTURE
     1 30S         1 TEMP              0 ****  ****    0 ROOT
