@<TRIPOS>MOLECULE
30T
   62    66     1     0     0
SMALL
bcc


@<TRIPOS>ATOM
      1 C1          0.3560   -0.0370    0.0470 ca        1 30T     -0.226300
      2 C2          1.7200    0.2050   -0.0630 ca        1 30T     -0.256500
      3 C3          2.4860    0.3390    1.0920 ca        1 30T     -0.221300
      4 C4          1.8530    0.2320    2.3640 ca        1 30T      0.648200
      5 N5          0.5130   -0.0210    2.4840 nb        1 30T     -0.731000
      6 C6         -0.2280   -0.1320    1.3480 ca        1 30T      0.654200
      7 S7          2.4530    0.3070   -1.5920 sy        1 30T      1.432600
      8 C8          2.3260    1.9520   -1.8800 ca        1 30T     -0.379500
      9 C9          1.2100    2.4800   -2.5420 ca        1 30T     -0.013000
     10 C10         1.1110    3.8440   -2.8030 ca        1 30T     -0.155500
     11 C11         2.1350    4.7040   -2.4050 ca        1 30T     -0.063000
     12 C12         3.2580    4.1940   -1.7520 ca        1 30T     -0.155500
     13 C13         3.3500    2.8290   -1.4940 ca        1 30T     -0.013000
     14 O14         3.8050   -0.0520   -1.4740 o         1 30T     -0.653300
     15 O15         1.6730   -0.3990   -2.5200 o         1 30T     -0.653300
     16 N16         2.5800    0.4760    3.5510 nh        1 30T     -0.816900
     17 N17        -1.6360   -0.2810    1.4190 nh        1 30T     -0.780600
     18 C18        -2.2500   -0.5830    2.6490 cc        1 30T      0.498200
     19 C19        -2.2020    0.2430    3.8430 cc        1 30T     -0.238300
     20 C20        -3.0380   -0.4100    4.7680 cd        1 30T     -0.059300
     21 N21        -3.5320   -1.5490    4.1100 na        1 30T     -0.002600
     22 N22        -3.0710   -1.6770    2.8740 nd        1 30T     -0.543800
     23 C23         3.9390   -0.0420    3.6400 c3        1 30T      0.189500
     24 C24         4.5670    0.3110    5.0010 c3        1 30T     -0.093400
     25 C25         6.0210   -0.1030    5.0330 c3        1 30T     -0.093900
     26 C26         6.1650   -1.5990    4.7730 c3        1 30T      0.139100
     27 C27         5.5120   -1.9860    3.4490 c3        1 30T     -0.093900
     28 C28         4.0640   -1.5590    3.4140 c3        1 30T     -0.093400
     29 O29         7.5610   -1.8710    4.7560 oh        1 30T     -0.598800
     30 C30        -3.3660   -0.0390    6.1300 ca        1 30T     -0.018000
     31 C31        -2.4630    0.7500    6.8590 ca        1 30T     -0.117000
     32 C32        -2.7600    1.1260    8.1670 ca        1 30T     -0.126500
     33 C33        -3.9540    0.7190    8.7610 ca        1 30T     -0.123000
     34 C34        -4.8560   -0.0640    8.0400 ca        1 30T     -0.126500
     35 C35        -4.5670   -0.4420    6.7300 ca        1 30T     -0.117000
     36 H1         -0.2580   -0.1660   -0.8590 ha        1 30T      0.163000
     37 H2          3.5700    0.5140    1.0110 ha        1 30T      0.163000
     38 H3          0.4060    1.7960   -2.8690 ha        1 30T      0.152500
     39 H4          0.2270    4.2410   -3.3240 ha        1 30T      0.142500
     40 H5          2.0590    5.7830   -2.6080 ha        1 30T      0.138000
     41 H6          4.0710    4.8670   -1.4430 ha        1 30T      0.142500
     42 H7          4.2440    2.4220   -0.9900 ha        1 30T      0.152500
     43 H8          2.0540    0.3000    4.3880 hn        1 30T      0.405800
     44 H9         -1.9970   -0.8100    0.6460 hn        1 30T      0.425800
     45 H10        -1.6360    1.1580    3.9770 ha        1 30T      0.179000
     46 H11        -4.1440   -2.2330    4.4880 hn        1 30T      0.323700
     47 H12         4.5450    0.4810    2.8390 h1        1 30T      0.067700
     48 H13         4.0070   -0.2060    5.8230 hc        1 30T      0.052200
     49 H14         4.4950    1.4160    5.1790 hc        1 30T      0.052200
     50 H15         6.4630    0.1400    6.0340 hc        1 30T      0.056700
     51 H16         6.6060    0.4620    4.2610 hc        1 30T      0.056700
     52 H17         5.6880   -2.1810    5.6130 h1        1 30T      0.032700
     53 H18         5.5790   -3.0970    3.3100 hc        1 30T      0.056700
     54 H19         6.0780   -1.5070    2.6070 hc        1 30T      0.056700
     55 H20         3.4860   -2.1070    4.2020 hc        1 30T      0.052200
     56 H21         3.6220   -1.8260    2.4180 hc        1 30T      0.052200
     57 H22         7.6620   -2.7930    4.4960 ho        1 30T      0.401000
     58 H23        -1.5200    1.0690    6.3910 ha        1 30T      0.135000
     59 H24        -2.0470    1.7460    8.7320 ha        1 30T      0.135500
     60 H25        -4.1860    1.0160    9.7950 ha        1 30T      0.135000
     61 H26        -5.8010   -0.3820    8.5050 ha        1 30T      0.135500
     62 H27        -5.2980   -1.0450    6.1710 ha        1 30T      0.135000
@<TRIPOS>BOND
     1    1    2 ar  
     2    1    6 ar  
     3    1   36 1   
     4    2    3 ar  
     5    2    7 1   
     6    3    4 ar  
     7    3   37 1   
     8    4    5 ar  
     9    4   16 1   
    10    5    6 ar  
    11    6   17 1   
    12    7    8 1   
    13    7   14 2   
    14    7   15 2   
    15    8    9 ar  
    16    8   13 ar  
    17    9   10 ar  
    18    9   38 1   
    19   10   11 ar  
    20   10   39 1   
    21   11   12 ar  
    22   11   40 1   
    23   12   13 ar  
    24   12   41 1   
    25   13   42 1   
    26   16   23 1   
    27   16   43 1   
    28   17   18 1   
    29   17   44 1   
    30   18   19 1   
    31   18   22 2   
    32   19   20 2   
    33   19   45 1   
    34   20   21 1   
    35   20   30 1   
    36   21   22 1   
    37   21   46 1   
    38   23   24 1   
    39   23   28 1   
    40   23   47 1   
    41   24   25 1   
    42   24   48 1   
    43   24   49 1   
    44   25   26 1   
    45   25   50 1   
    46   25   51 1   
    47   26   27 1   
    48   26   29 1   
    49   26   52 1   
    50   27   28 1   
    51   27   53 1   
    52   27   54 1   
    53   28   55 1   
    54   28   56 1   
    55   29   57 1   
    56   30   31 ar  
    57   30   35 ar  
    58   31   32 ar  
    59   31   58 1   
    60   32   33 ar  
    61   32   59 1   
    62   33   34 ar  
    63   33   60 1   
    64   34   35 ar  
    65   34   61 1   
    66   35   62 1   
@<TRIPOS>SUBSTRUCTURE
     1 30T         1 TEMP              0 ****  ****    0 ROOT
