@<TRIPOS>MOLECULE
30T
   62    66     1     0     0
SMALL
bcc


@<TRIPOS>ATOM
      1 C1          0.3580   -0.0530    0.0480 ca        1 30T     -0.226300
      2 C2          1.7210    0.1990   -0.0620 ca        1 30T     -0.256500
      3 C3          2.4860    0.3420    1.0930 ca        1 30T     -0.221300
      4 C4          1.8530    0.2340    2.3650 ca        1 30T      0.648200
      5 N5          0.5150   -0.0290    2.4850 nb        1 30T     -0.731000
      6 C6         -0.2250   -0.1480    1.3490 ca        1 30T      0.654200
      7 S7          2.4530    0.3030   -1.5910 sy        1 30T      1.432600
      8 C8          2.3150    1.9460   -1.8830 ca        1 30T     -0.379500
      9 C9          1.1950    2.4650   -2.5470 ca        1 30T     -0.013000
     10 C10         1.0870    3.8270   -2.8120 ca        1 30T     -0.155500
     11 C11         2.1050    4.6950   -2.4160 ca        1 30T     -0.063000
     12 C12         3.2310    4.1940   -1.7610 ca        1 30T     -0.155500
     13 C13         3.3320    2.8310   -1.5000 ca        1 30T     -0.013000
     14 O14         3.8080   -0.0460   -1.4720 o         1 30T     -0.653300
     15 O15         1.6780   -0.4110   -2.5180 o         1 30T     -0.653300
     16 N16         2.5790    0.4870    3.5510 nu        1 30T     -0.817900
     17 N17        -1.6320   -0.3070    1.4210 nu        1 30T     -0.780600
     18 C18        -2.2440   -0.6110    2.6520 cc        1 30T      0.498200
     19 C19        -2.2020    0.2190    3.8430 cc        1 30T     -0.238300
     20 C20        -3.0330   -0.4380    4.7700 cd        1 30T     -0.059300
     21 N21        -3.5190   -1.5820    4.1150 na        1 30T     -0.002600
     22 N22        -3.0570   -1.7100    2.8790 nd        1 30T     -0.543800
     23 C23         3.9420   -0.0190    3.6410 c3        1 30T      0.189500
     24 C24         4.5670    0.3430    5.0010 c3        1 30T     -0.093400
     25 C25         6.0240   -0.0590    5.0340 c3        1 30T     -0.093900
     26 C26         6.1820   -1.5540    4.7770 c3        1 30T      0.139100
     27 C27         5.5320   -1.9500    3.4540 c3        1 30T     -0.093900
     28 C28         4.0800   -1.5350    3.4180 c3        1 30T     -0.093400
     29 O29         7.5800   -1.8130    4.7610 oh        1 30T     -0.598800
     30 C30        -3.3650   -0.0660    6.1300 ca        1 30T     -0.018000
     31 C31        -2.4680    0.7320    6.8590 ca        1 30T     -0.117000
     32 C32        -2.7680    1.1090    8.1650 ca        1 30T     -0.126500
     33 C33        -3.9600    0.6950    8.7600 ca        1 30T     -0.123000
     34 C34        -4.8550   -0.0960    8.0400 ca        1 30T     -0.126500
     35 C35        -4.5640   -0.4750    6.7320 ca        1 30T     -0.117000
     36 H1         -0.2540   -0.1880   -0.8580 ha        1 30T      0.163000
     37 H2          3.5690    0.5250    1.0110 ha        1 30T      0.163000
     38 H3          0.3960    1.7740   -2.8730 ha        1 30T      0.152500
     39 H4          0.2000    4.2170   -3.3340 ha        1 30T      0.142500
     40 H5          2.0210    5.7730   -2.6220 ha        1 30T      0.138000
     41 H6          4.0390    4.8750   -1.4530 ha        1 30T      0.142500
     42 H7          4.2290    2.4310   -0.9940 ha        1 30T      0.152500
     43 H8          2.0540    0.3090    4.3880 hn        1 30T      0.405800
     44 H9         -1.9890   -0.8410    0.6500 hn        1 30T      0.425800
     45 H10        -1.6430    1.1390    3.9750 ha        1 30T      0.179000
     46 H11        -4.1260   -2.2700    4.4940 hn        1 30T      0.323700
     47 H12         4.5430    0.5070    2.8390 h1        1 30T      0.067700
     48 H13         4.0110   -0.1780    5.8240 hc        1 30T      0.052200
     49 H14         4.4850    1.4470    5.1770 hc        1 30T      0.052200
     50 H15         6.4650    0.1900    6.0340 hc        1 30T      0.056700
     51 H16         6.6040    0.5090    4.2610 hc        1 30T      0.056700
     52 H17         5.7100   -2.1380    5.6180 h1        1 30T      0.032700
     53 H18         5.6080   -3.0600    3.3170 hc        1 30T      0.056700
     54 H19         6.0930   -1.4680    2.6110 hc        1 30T      0.056700
     55 H20         3.6400   -1.8080    2.4230 hc        1 30T      0.052200
     56 H21         3.5060   -2.0870    4.2080 hc        1 30T      0.052200
     57 H22         7.6890   -2.7360    4.5020 ho        1 30T      0.401000
     58 H23        -1.5260    1.0560    6.3900 ha        1 30T      0.135000
     59 H24        -2.0600    1.7350    8.7290 ha        1 30T      0.135500
     60 H25        -4.1940    0.9930    9.7920 ha        1 30T      0.135000
     61 H26        -5.7990   -0.4190    8.5050 ha        1 30T      0.135500
     62 H27        -5.2890   -1.0840    6.1740 ha        1 30T      0.135000
@<TRIPOS>BOND
     1    1    2 ar  
     2    1    6 ar  
     3    1   36 1   
     4    2    3 ar  
     5    2    7 1   
     6    3    4 ar  
     7    3   37 1   
     8    4    5 ar  
     9    4   16 1   
    10    5    6 ar  
    11    6   17 1   
    12    7    8 1   
    13    7   14 2   
    14    7   15 2   
    15    8    9 ar  
    16    8   13 ar  
    17    9   10 ar  
    18    9   38 1   
    19   10   11 ar  
    20   10   39 1   
    21   11   12 ar  
    22   11   40 1   
    23   12   13 ar  
    24   12   41 1   
    25   13   42 1   
    26   16   23 1   
    27   16   43 1   
    28   17   18 1   
    29   17   44 1   
    30   18   19 1   
    31   18   22 2   
    32   19   20 2   
    33   19   45 1   
    34   20   21 1   
    35   20   30 1   
    36   21   22 1   
    37   21   46 1   
    38   23   24 1   
    39   23   28 1   
    40   23   47 1   
    41   24   25 1   
    42   24   48 1   
    43   24   49 1   
    44   25   26 1   
    45   25   50 1   
    46   25   51 1   
    47   26   27 1   
    48   26   29 1   
    49   26   52 1   
    50   27   28 1   
    51   27   53 1   
    52   27   54 1   
    53   28   55 1   
    54   28   56 1   
    55   29   57 1   
    56   30   31 ar  
    57   30   35 ar  
    58   31   32 ar  
    59   31   58 1   
    60   32   33 ar  
    61   32   59 1   
    62   33   34 ar  
    63   33   60 1   
    64   34   35 ar  
    65   34   61 1   
    66   35   62 1   
@<TRIPOS>SUBSTRUCTURE
     1 30T         1 TEMP              0 ****  ****    0 ROOT
