@<TRIPOS>MOLECULE
30U
   37    38     1     0     0
SMALL
bcc


@<TRIPOS>ATOM
      1 C1          1.1580   -0.8830   -1.0240 c1        1 30U     -0.177000
      2 C2          1.4930   -0.6480    0.1000 c1        1 30U     -0.109000
      3 C3          1.9220   -0.3950    1.4340 c2        1 30U      0.200000
      4 C4          0.9850    0.0240    2.4050 c2        1 30U     -0.242000
      5 C5         -0.4120    0.2720    2.0590 c2        1 30U      0.109000
      6 C6         -0.8130    1.0500    1.0420 c2        1 30U     -0.307000
      7 O1         -1.2790   -0.4530    2.8690 os        1 30U     -0.236000
      8 C7         -2.5620    0.1430    3.1280 c3        1 30U      0.002000
      9 C8         -2.8010    0.1050    4.6010 c2        1 30U     -0.134000
     10 C9         -3.1800    1.2060    5.2900 c2        1 30U     -0.166000
     11 C10        -3.3870    1.1370    6.7180 c2        1 30U      0.032000
     12 C11        -3.1810   -0.0130    7.4130 c2        1 30U     -0.777000
     13 C12        -2.8090   -1.2170    6.7550 c1        1 30U     -0.022000
     14 C13        -2.6210   -1.1920    5.3020 c3        1 30U     -0.201000
     15 S1         -3.3690   -0.0540    9.1890 s6        1 30U      2.884000
     16 O2         -2.0950   -0.3770    9.6980 o         1 30U     -1.066333
     17 O3         -3.7520    1.2850    9.4790 o         1 30U     -1.066333
     18 C14         1.4770    0.1970    3.7530 c2        1 30U      0.228000
     19 N1          2.8000   -0.0130    4.0550 n2        1 30U     -0.296000
     20 C15         3.6310   -0.3620    3.0130 c2        1 30U      0.180000
     21 N2          3.2360   -0.5930    1.7030 n2        1 30U     -0.258000
     22 N3          5.0060   -0.4460    3.2930 nv        1 30U     -0.318000
     23 N4          0.6430    0.6400    4.7550 nv        1 30U     -0.329000
     24 H1         -1.8660    1.1960    0.7800 ha        1 30U      0.124500
     25 H2          0.8420   -1.0870   -2.0140 ha        1 30U      0.221000
     26 H3         -0.0850    1.5770    0.4150 ha        1 30U      0.124500
     27 H5         -3.3130   -0.4980    2.5920 h1        1 30U      0.090500
     28 H4         -2.6190    1.1930    2.7390 h1        1 30U      0.090500
     29 H6         -3.3270    2.1780    4.7960 ha        1 30U      0.117000
     30 H7         -3.7050    2.0590    7.2410 ha        1 30U      0.164000
     31 H8         -3.3480   -1.9480    4.8790 hc        1 30U      0.147500
     32 H9         -1.5890   -1.5950    5.0810 hc        1 30U      0.147500
     33 H10         5.2440   -0.5570    4.2520 hn        1 30U      0.213000
     34 H11         5.5410   -0.9910    2.6560 hn        1 30U      0.213000
     35 H12         0.9720    0.6280    5.6940 hn        1 30U      0.241500
     36 H13        -0.3370    0.5080    4.6240 hn        1 30U      0.241500
     37 O4         -4.3900   -0.9830    9.4620 o         1 30U     -1.066333
@<TRIPOS>BOND
     1    1    2 1   
     2    1   25 1   
     3    2    3 1   
     4    3    4 1   
     5    3   21 1   
     6    4    5 1   
     7    4   18 1   
     8    5    6 1   
     9    5    7 1   
    10    6   24 1   
    11    6   26 1   
    12    7    8 1   
    13    8    9 1   
    14    8   27 1   
    15    8   28 1   
    16    9   10 1   
    17    9   14 1   
    18   10   11 1   
    19   10   29 1   
    20   11   12 1   
    21   11   30 1   
    22   12   13 1   
    23   12   15 1   
    24   13   14 1   
    25   14   31 1   
    26   14   32 1   
    27   15   16 1   
    28   15   17 1   
    29   15   37 1   
    30   18   19 1   
    31   18   23 1   
    32   19   20 1   
    33   20   21 1   
    34   20   22 1   
    35   22   33 1   
    36   22   34 1   
    37   23   35 1   
    38   23   36 1   
@<TRIPOS>SUBSTRUCTURE
     1 30U         1 TEMP              0 ****  ****    0 ROOT
