@<TRIPOS>MOLECULE
30U
   37    38     1     0     0
SMALL
bcc


@<TRIPOS>ATOM
      1 C1          1.1710    0.5680   -1.0500 c1        1 30U     -0.173000
      2 C2          1.5370    0.4390    0.0810 c1        1 30U     -0.112000
      3 C3          2.0020    0.3190    1.4210 c2        1 30U      0.201000
      4 C4          1.1030   -0.0460    2.4490 c2        1 30U     -0.238000
      5 C5         -0.2940   -0.3580    2.1660 c2        1 30U      0.108000
      6 C6         -0.7060   -1.1920    1.1980 c2        1 30U     -0.309000
      7 O1         -1.1590    0.3540    2.9890 os        1 30U     -0.237000
      8 C7         -2.4180   -0.2800    3.2720 c3        1 30U      0.001000
      9 C8         -2.7760   -0.0380    4.6980 c2        1 30U     -0.127000
     10 C9         -2.2360    0.9450    5.4540 c2        1 30U     -0.168000
     11 C10        -2.6120    1.0910    6.8400 c2        1 30U      0.036000
     12 C11        -3.5050    0.2520    7.4300 c2        1 30U     -0.781000
     13 C12        -4.1660   -0.7580    6.6840 c1        1 30U     -0.017000
     14 C13        -3.7990   -0.9510    5.2770 c3        1 30U     -0.201000
     15 S1         -3.8930    0.4010    9.1670 s6        1 30U      2.884000
     16 O2         -3.5270   -0.8300    9.7490 o         1 30U     -1.066667
     17 O3         -3.0460    1.4710    9.5710 o         1 30U     -1.066667
     18 C14         1.6410   -0.1160    3.7890 c2        1 30U      0.225000
     19 N1          2.9630    0.1510    4.0360 n2        1 30U     -0.300000
     20 C15         3.7460    0.4940    2.9530 c2        1 30U      0.185000
     21 N2          3.3170    0.5720    1.6360 n2        1 30U     -0.259000
     22 N3          5.0750    0.8580    3.2170 nh        1 30U     -0.325000
     23 N4          0.8550   -0.5360    4.8410 nh        1 30U     -0.331000
     24 H1         -1.7640   -1.3880    0.9910 ha        1 30U      0.125000
     25 H2          0.8270    0.6770   -2.0470 ha        1 30U      0.222000
     26 H3          0.0130   -1.7160    0.5580 ha        1 30U      0.125000
     27 H5         -2.3680   -1.3840    3.0730 h1        1 30U      0.091500
     28 H4         -3.1790    0.1880    2.5900 h1        1 30U      0.091500
     29 H6         -1.4950    1.6450    5.0380 ha        1 30U      0.132000
     30 H7         -2.1400    1.9070    7.4220 ha        1 30U      0.164000
     31 H8         -4.7560   -0.8580    4.6860 hc        1 30U      0.137500
     32 H9         -3.4570   -2.0220    5.1780 hc        1 30U      0.137500
     33 H10         5.6970    0.8320    2.4430 hn        1 30U      0.217000
     34 H11         5.4480    0.5590    4.0880 hn        1 30U      0.217000
     35 H12         1.2160   -0.4550    5.7650 hn        1 30U      0.238500
     36 H13        -0.1320   -0.4290    4.7420 hn        1 30U      0.238500
     37 O4         -5.2600    0.7290    9.2440 o         1 30U     -1.066667
@<TRIPOS>BOND
     1    1    2 1   
     2    1   25 1   
     3    2    3 1   
     4    3    4 1   
     5    3   21 1   
     6    4    5 1   
     7    4   18 1   
     8    5    6 1   
     9    5    7 1   
    10    6   24 1   
    11    6   26 1   
    12    7    8 1   
    13    8    9 1   
    14    8   27 1   
    15    8   28 1   
    16    9   10 1   
    17    9   14 1   
    18   10   11 1   
    19   10   29 1   
    20   11   12 1   
    21   11   30 1   
    22   12   13 1   
    23   12   15 1   
    24   13   14 1   
    25   14   31 1   
    26   14   32 1   
    27   15   16 1   
    28   15   17 1   
    29   15   37 1   
    30   18   19 1   
    31   18   23 1   
    32   19   20 1   
    33   20   21 1   
    34   20   22 1   
    35   22   33 1   
    36   22   34 1   
    37   23   35 1   
    38   23   36 1   
@<TRIPOS>SUBSTRUCTURE
     1 30U         1 TEMP              0 ****  ****    0 ROOT
