@<TRIPOS>MOLECULE
30W
   25    25     1     0     0
SMALL
bcc


@<TRIPOS>ATOM
      1 C4         -0.0800    0.2120   -0.2200 c         1 30W      0.620200
      2 C6         -2.8970    1.1000    2.0940 ce        1 30W      0.238500
      3 C11         5.6630   -0.0190    2.1120 c3        1 30W     -0.178100
      4 C7         -3.3690    0.2020    2.9240 c1        1 30W     -0.450900
      5 C9         -4.0870   -0.4190    3.7870 c1        1 30W      0.627500
      6 C10         4.1900   -0.1660    2.3640 c         1 30W      0.693100
      7 N1          1.2030   -0.2780    2.2830 na        1 30W     -0.377200
      8 N3          1.3380    0.1620   -0.0600 ns        1 30W     -0.506400
      9 O10         3.6920   -0.4610    3.4520 o         1 30W     -0.512100
     10 C2          1.9610   -0.0320    1.1680 cz        1 30W      0.480500
     11 C8A        -0.2170   -0.5080    2.1830 cd        1 30W      0.394500
     12 N8         -0.7640   -1.2990    3.0330 n2        1 30W     -0.693100
     13 N5         -1.9840    0.8930    1.0590 ne        1 30W     -0.485300
     14 C4A        -0.8790    0.2460    1.0590 cd        1 30W      0.335000
     15 O4         -0.5220    0.2320   -1.3620 o         1 30W     -0.447500
     16 H1          6.2030   -0.2240    3.0740 hc        1 30W      0.105367
     17 H2          5.9070    1.0200    1.7750 hc        1 30W      0.105367
     18 H3          6.0100   -0.7510    1.3410 hc        1 30W      0.105367
     19 H4         -1.7560   -1.4270    2.9780 hn        1 30W      0.476400
     20 H5         -3.2610    2.1560    2.0680 h4        1 30W      0.189000
     21 H8          1.6520   -0.4900    3.1680 hn        1 30W      0.375700
     22 H9          1.8870    0.2490   -0.8960 hn        1 30W      0.374500
     23 O9         -4.6700   -1.1000    4.5620 o         1 30W     -0.316500
     24 N2          3.3520    0.0640    1.2270 ns        1 30W     -0.512400
     25 H22         3.8270    0.3200    0.3820 hn        1 30W      0.360500
@<TRIPOS>BOND
     1    1    8 1   
     2    1   14 1   
     3    1   15 2   
     4    2    4 2   
     5    2   13 1   
     6    2   20 1   
     7    3    6 1   
     8    3   16 1   
     9    3   17 1   
    10    3   18 1   
    11    4    5 2   
    12    5   23 2   
    13    6    9 2   
    14    6   24 1   
    15    7   10 2   
    16    7   11 1   
    17    7   21 1   
    18    8   10 1   
    19    8   22 1   
    20   10   24 1   
    21   11   12 2   
    22   11   14 1   
    23   12   19 1   
    24   13   14 2   
    25   24   25 1   
@<TRIPOS>SUBSTRUCTURE
     1 30W         1 TEMP              0 ****  ****    0 ROOT
