@<TRIPOS>MOLECULE
30W
   25    25     1     0     0
SMALL
bcc


@<TRIPOS>ATOM
      1 C4         -0.0640   -0.0180   -0.2400 c         1 30W      0.620200
      2 C6         -2.9170    1.0580    1.9470 ce        1 30W      0.238500
      3 C11         5.6600    0.0920    2.1480 c3        1 30W     -0.178100
      4 C7         -3.3810    0.2440    2.8630 c1        1 30W     -0.450900
      5 C9         -4.0980   -0.2960    3.7810 c1        1 30W      0.627500
      6 C10         4.1870   -0.0540    2.4020 c         1 30W      0.693100
      7 N1          1.2030   -0.2230    2.3110 na        1 30W     -0.377200
      8 N3          1.3530   -0.0280   -0.0650 n         1 30W     -0.506400
      9 O10         3.6830   -0.2430    3.5110 o         1 30W     -0.512100
     10 C2          1.9670   -0.0820    1.1810 cz        1 30W      0.480500
     11 C8A        -0.2130   -0.4860    2.2240 cd        1 30W      0.394500
     12 N8         -0.7540   -1.1940    3.1480 n2        1 30W     -0.693100
     13 N5         -1.9910    0.7600    0.9470 ne        1 30W     -0.485300
     14 C4A        -0.8760    0.1360    1.0220 cd        1 30W      0.335000
     15 O4         -0.4960   -0.1250   -1.3810 o         1 30W     -0.447500
     16 H1          6.1940   -0.0040    3.1290 hc        1 30W      0.105367
     17 H2          5.8900    1.0940    1.7080 hc        1 30W      0.105367
     18 H3          6.0250   -0.7100    1.4580 hc        1 30W      0.105367
     19 H4         -1.7440   -1.3440    3.0980 hn        1 30W      0.476400
     20 H5         -3.2980    2.1000    1.8090 h4        1 30W      0.189000
     21 H8          1.6470   -0.3350    3.2160 hn        1 30W      0.375700
     22 H9          1.9080   -0.0180   -0.9010 hn        1 30W      0.374500
     23 O9         -4.6770   -0.9030    4.6180 o         1 30W     -0.316500
     24 N2          3.3560    0.0430    1.2410 n         1 30W     -0.512400
     25 H22         3.8350    0.2170    0.3770 hn        1 30W      0.360500
@<TRIPOS>BOND
     1    1    8 1   
     2    1   14 1   
     3    1   15 2   
     4    2    4 2   
     5    2   13 1   
     6    2   20 1   
     7    3    6 1   
     8    3   16 1   
     9    3   17 1   
    10    3   18 1   
    11    4    5 2   
    12    5   23 2   
    13    6    9 2   
    14    6   24 1   
    15    7   10 2   
    16    7   11 1   
    17    7   21 1   
    18    8   10 1   
    19    8   22 1   
    20   10   24 1   
    21   11   12 2   
    22   11   14 1   
    23   12   19 1   
    24   13   14 2   
    25   24   25 1   
@<TRIPOS>SUBSTRUCTURE
     1 30W         1 TEMP              0 ****  ****    0 ROOT
