@<TRIPOS>MOLECULE
30W
   25    25     1     0     0
SMALL
bcc


@<TRIPOS>ATOM
      1 C4         -0.0630    0.3910   -0.2120 c         1 30W      0.620200
      2 C6         -2.8800   -1.1540    1.7270 ce        1 30W      0.238500
      3 C11         5.6600    0.0350    2.1530 c3        1 30W     -0.178100
      4 C7         -3.3710   -0.5340    2.7720 c1        1 30W     -0.450900
      5 C9         -4.1050   -0.1910    3.7680 c1        1 30W      0.627500
      6 C10         4.1840    0.0850    2.4210 c         1 30W      0.693100
      7 N1          1.1960    0.1720    2.3420 na        1 30W     -0.377200
      8 N3          1.3530    0.4140   -0.0290 n         1 30W     -0.506400
      9 O10         3.6740    0.0540    3.5420 o         1 30W     -0.512100
     10 C2          1.9650    0.2620    1.2110 cz        1 30W      0.480500
     11 C8A        -0.2280    0.4020    2.2950 cd        1 30W      0.394500
     12 N8         -0.7920    0.9130    3.3280 n2        1 30W     -0.693100
     13 N5         -1.9640   -0.6500    0.8030 ne        1 30W     -0.485300
     14 C4A        -0.8700   -0.0140    0.9970 cd        1 30W      0.335000
     15 O4         -0.4980    0.6880   -1.3170 o         1 30W     -0.447500
     16 H1          6.1910   -0.0330    3.1390 hc        1 30W      0.105367
     17 H2          5.9230   -0.8630    1.5390 hc        1 30W      0.105367
     18 H3          6.0000    0.9600    1.6230 hc        1 30W      0.105367
     19 H4         -1.7860    1.0370    3.3010 hn        1 30W      0.476400
     20 H5         -3.2270   -2.1650    1.4010 h4        1 30W      0.189000
     21 H8          1.6360    0.1330    3.2560 hn        1 30W      0.375700
     22 H9          1.9090    0.5730   -0.8500 hn        1 30W      0.374500
     23 O9         -4.7040    0.2350    4.6970 o         1 30W     -0.316500
     24 N2          3.3560    0.1730    1.2560 n         1 30W     -0.512400
     25 H22         3.8410    0.1730    0.3780 hn        1 30W      0.360500
@<TRIPOS>BOND
     1    1    8 1   
     2    1   14 1   
     3    1   15 2   
     4    2    4 2   
     5    2   13 1   
     6    2   20 1   
     7    3    6 1   
     8    3   16 1   
     9    3   17 1   
    10    3   18 1   
    11    4    5 2   
    12    5   23 2   
    13    6    9 2   
    14    6   24 1   
    15    7   10 2   
    16    7   11 1   
    17    7   21 1   
    18    8   10 1   
    19    8   22 1   
    20   10   24 1   
    21   11   12 2   
    22   11   14 1   
    23   12   19 1   
    24   13   14 2   
    25   24   25 1   
@<TRIPOS>SUBSTRUCTURE
     1 30W         1 TEMP              0 ****  ****    0 ROOT
