@<TRIPOS>MOLECULE
30X
   40    40     1     0     0
SMALL
bcc


@<TRIPOS>ATOM
      1 C10        -0.1360   -1.9070    0.7620 ca        1 30X     -0.152000
      2 C13        -3.3860   -2.1110   -1.0290 cg        1 30X      0.218800
      3 C15        -1.9050   -0.1920   -0.5580 ca        1 30X     -0.104300
      4 C16        -0.7360    0.3160   -0.0000 ca        1 30X     -0.139000
      5 C17        -2.8490    0.7710   -1.2820 c3        1 30X      0.686200
      6 C24         3.7700   -2.3630   -1.7160 c3        1 30X      0.073800
      7 C25         3.7330   -0.0300   -0.9650 c3        1 30X      0.073800
      8 C1          2.4220   -1.4980    2.9260 c3        1 30X     -0.116100
      9 C2          2.5060   -0.7860    1.5760 c3        1 30X      0.157500
     10 C4          1.2390    1.2720    1.9140 c3        1 30X      0.182800
     11 C5          1.9720    2.4610    1.1740 c3        1 30X      0.597900
     12 F6          1.7970    3.6510    1.8330 f         1 30X     -0.236300
     13 F7          3.3310    2.3090    1.0760 f         1 30X     -0.236300
     14 F8          1.5460    2.6960   -0.1050 f         1 30X     -0.236300
     15 C9          0.1730   -0.5320    0.6830 ca        1 30X      0.171600
     16 C11        -1.3000   -2.4060    0.1890 ca        1 30X     -0.069000
     17 C12        -2.2020   -1.5600   -0.4690 ca        1 30X      0.008000
     18 N14        -4.3530   -2.5740   -1.4820 n1        1 30X     -0.328800
     19 F18        -2.9180    0.5770   -2.6390 f         1 30X     -0.229300
     20 F19        -4.1530    0.7160   -0.8560 f         1 30X     -0.229300
     21 F20        -2.5190    2.0990   -1.1520 f         1 30X     -0.229300
     22 C21         2.8720   -1.8290    0.4920 c         1 30X      0.655100
     23 O22         2.7090   -3.0450    0.7300 o         1 30X     -0.615100
     24 N23         3.4070   -1.4040   -0.7050 n         1 30X     -0.457800
     25 H10         0.5500   -2.6160    1.2590 ha        1 30X      0.179000
     26 H16        -0.5130    1.3920   -0.1170 ha        1 30X      0.167000
     27 H24         4.8830   -2.3670   -1.8610 h1        1 30X      0.049700
     28 H24A        3.4380   -3.3930   -1.4160 h1        1 30X      0.049700
     29 H24B        3.2780   -2.0880   -2.6870 h1        1 30X      0.049700
     30 H25         2.8160    0.6190   -0.9320 h1        1 30X      0.049700
     31 H25A        4.4660    0.3580   -0.2050 h1        1 30X      0.049700
     32 H25B        4.1950    0.0620   -1.9840 h1        1 30X      0.049700
     33 H1          2.2640   -0.7610    3.7490 hc        1 30X      0.056033
     34 H1A         1.5960   -2.2480    2.9480 hc        1 30X      0.056033
     35 H1B         3.3820   -2.0400    3.1030 hc        1 30X      0.056033
     36 H2          3.3770   -0.0560    1.6410 h1        1 30X      0.080700
     37 H4          0.1650    1.5900    2.0260 h1        1 30X      0.089700
     38 H4A         1.7130    1.2190    2.9350 h1        1 30X      0.089700
     39 H11        -1.5160   -3.4850    0.2590 ha        1 30X      0.159000
     40 N3          1.3540    0.0250    1.2160 nh        1 30X     -0.679000
@<TRIPOS>BOND
     1    1   15 ar  
     2    1   16 ar  
     3    1   25 1   
     4    2   17 1   
     5    2   18 3   
     6    3    4 ar  
     7    3    5 1   
     8    3   17 ar  
     9    4   15 ar  
    10    4   26 1   
    11    5   19 1   
    12    5   20 1   
    13    5   21 1   
    14    6   24 1   
    15    6   27 1   
    16    6   28 1   
    17    6   29 1   
    18    7   24 1   
    19    7   30 1   
    20    7   31 1   
    21    7   32 1   
    22    8    9 1   
    23    8   33 1   
    24    8   34 1   
    25    8   35 1   
    26    9   22 1   
    27    9   36 1   
    28    9   40 1   
    29   10   11 1   
    30   10   37 1   
    31   10   38 1   
    32   10   40 1   
    33   11   12 1   
    34   11   13 1   
    35   11   14 1   
    36   15   40 1   
    37   16   17 ar  
    38   16   39 1   
    39   22   23 2   
    40   22   24 1   
@<TRIPOS>SUBSTRUCTURE
     1 30X         1 TEMP              0 ****  ****    0 ROOT
