@<TRIPOS>MOLECULE
30X
   40    36     1     0     0
SMALL
bcc


@<TRIPOS>ATOM
      1 C10        -1.2560   -1.7640    0.9420 c1        1 30X     -0.053000
      2 C13        -2.0190   -0.9720    4.5510 c1        1 30X      0.214800
      3 C15        -0.2410   -0.2020    2.9780 c1        1 30X     -0.070100
      4 C16         0.3720   -0.2040    1.7350 c1        1 30X     -0.081500
      5 C17         0.3310    0.6500    4.1060 c3        1 30X      0.652000
      6 C24        -1.6370    2.9880   -2.1960 c3        1 30X      0.073800
      7 C25         0.7890    2.6030   -2.7540 c3        1 30X      0.073800
      8 C1         -0.8830   -1.0910   -2.4820 c3        1 30X     -0.116100
      9 C2          0.1670   -0.3060   -1.6800 c3        1 30X      0.157500
     10 N3          0.5850   -1.0920   -0.5270 n3        1 30X     -0.653200
     11 C4          1.6160   -2.0830   -0.6740 c3        1 30X      0.182800
     12 C5          3.0140   -1.3810   -0.6790 c3        1 30X      0.597900
     13 F6          3.8800   -2.0960    0.0690 f         1 30X     -0.236300
     14 F7          3.4700   -1.3020   -1.9350 f         1 30X     -0.236300
     15 F8          2.8950   -0.1390   -0.1660 f         1 30X     -0.236300
     16 C9         -0.1340   -0.9830    0.7210 c1        1 30X      0.145800
     17 C11        -1.8640   -1.7610    2.1780 c1        1 30X     -0.053000
     18 C12        -1.3540   -0.9760    3.1980 c1        1 30X      0.012000
     19 N14        -2.5140   -0.9670    5.5610 n1        1 30X     -0.328800
     20 F18        -0.6750    1.2540    4.7680 f         1 30X     -0.229300
     21 F19         1.0150   -0.1310    4.9520 f         1 30X     -0.229300
     22 F20         1.1430    1.5700    3.5990 f         1 30X     -0.229300
     23 C21        -0.4150    0.9770   -1.2220 c         1 30X      0.655100
     24 O22        -0.8910    1.0670   -0.1010 o         1 30X     -0.615100
     25 N23        -0.4410    2.1460   -2.1340 n         1 30X     -0.457800
     26 H10        -1.6270   -2.3350    0.2000 ha        1 30X      0.111500
     27 H16         1.1870    0.3650    1.5750 ha        1 30X      0.109500
     28 H24        -1.4970    3.7050   -2.8470 h1        1 30X      0.049700
     29 H24A       -2.4080    2.4440   -2.4680 h1        1 30X      0.049700
     30 H24B       -1.8090    3.3830   -1.3030 h1        1 30X      0.049700
     31 H25         1.0030    2.0320   -3.5130 h1        1 30X      0.049700
     32 H25A        0.6720    3.5450   -3.0680 h1        1 30X      0.049700
     33 H25B        1.5200    2.5650   -2.0990 h1        1 30X      0.049700
     34 H1         -1.7330   -0.5790   -2.5050 hc        1 30X      0.056033
     35 H1A        -0.5580   -1.2300   -3.4030 hc        1 30X      0.056033
     36 H1B        -1.0390   -1.9700   -2.0510 hc        1 30X      0.056033
     37 H2          0.9470   -0.1240   -2.2510 h1        1 30X      0.080700
     38 H4          1.5690   -2.7300    0.0910 h1        1 30X      0.089700
     39 H4A         1.4910   -2.5560   -1.5040 h1        1 30X      0.089700
     40 H11        -2.6710   -2.3210    2.3380 ha        1 30X      0.111500
@<TRIPOS>BOND
     1    1   17 3   
     2    1   26 1   
     3    2   19 3   
     4    3    5 1   
     5    3   18 3   
     6    4   16 3   
     7    4   27 1   
     8    5   20 1   
     9    5   21 1   
    10    5   22 1   
    11    6   25 1   
    12    6   28 1   
    13    6   29 1   
    14    6   30 1   
    15    7   25 1   
    16    7   31 1   
    17    7   32 1   
    18    7   33 1   
    19    8    9 1   
    20    8   34 1   
    21    8   35 1   
    22    8   36 1   
    23    9   10 1   
    24    9   23 1   
    25    9   37 1   
    26   10   11 1   
    27   10   16 1   
    28   11   12 1   
    29   11   38 1   
    30   11   39 1   
    31   12   13 1   
    32   12   14 1   
    33   12   15 1   
    34   17   40 1   
    35   23   24 2   
    36   23   25 1   
@<TRIPOS>SUBSTRUCTURE
     1 30X         1 TEMP              0 ****  ****    0 ROOT
