@<TRIPOS>MOLECULE
30X
   41    43     1     0     0
SMALL
bcc


@<TRIPOS>ATOM
      1 C10         0.0000    0.0000    0.0000 ca        1 30X     -0.173000
      2 C13        -0.7050   -0.0190    3.6430 c1        1 30X     -0.162000
      3 C15         1.4070   -0.0120    2.3980 ca        1 30X     -0.130000
      4 C16         2.0900    0.0000    1.2040 ca        1 30X     -0.053000
      5 C17         2.1650   -0.0180    3.7000 c3        1 30X      0.422000
      6 C24        -0.8220    2.5380   -4.1110 c3        1 30X     -0.173500
      7 C25         0.2460    0.4210   -5.0160 c3        1 30X     -0.173500
      8 C1          0.5160   -1.4220   -2.4290 DU        1 30X     -0.080000
      9 C2          1.3580   -0.1450   -2.4700 c3        1 30X     -0.420000
     10 C4          3.5430    0.1470   -1.2130 c3        1 30X     -0.251000
     11 C5          3.9070    1.6320   -1.1750 c3        1 30X      0.369000
     12 F6          5.2990    1.7730   -1.2050 f         1 30X     -0.130333
     13 F7          3.3480    2.2770   -2.2840 f         1 30X     -0.130333
     14 F8          3.4060    2.2050   -0.0010 f         1 30X     -0.130333
     15 C9          1.3910    0.0000    0.0000 ca        1 30X     -0.128000
     16 C11        -0.6910   -0.0010    1.1910 ca        1 30X     -0.013000
     17 C12         0.0090   -0.0060    2.4020 ca        1 30X      0.133000
     18 N14        -1.2610   -0.0440    4.6340 n1        1 30X      0.046000
     19 F18         1.8350    1.1240    4.4370 f         1 30X     -0.123333
     20 F19         1.8260   -1.1610    4.4330 f         1 30X     -0.123333
     21 F20         3.5400   -0.0230    3.4390 f         1 30X     -0.123333
     22 C21         0.4550    1.0450   -2.6700 c3        1 30X      0.146000
     23 O22         0.1620    1.7490   -1.7280 o         1 30X     -0.243000
     24 N23        -0.0270    1.3270   -3.8970 nx        1 30X      0.333000
     25 H10        -0.3660   -0.0420   -1.0190 ha        1 30X      0.081000
     26 H16         3.1550    0.1970    1.2290 ha        1 30X      0.155000
     27 H24        -1.8550    2.7120   -4.3880 hx        1 30X      0.115667
     28 H24A       -0.3730    2.7640   -5.0710 hx        1 30X      0.115667
     29 H24B       -0.3050    3.4100   -3.7310 hx        1 30X      0.115667
     30 H25        -0.6680    0.2530   -5.5740 hx        1 30X      0.115667
     31 H25A        0.9010    1.0720   -5.5830 hx        1 30X      0.115667
     32 H25B        1.0100   -0.2730   -4.6890 hx        1 30X      0.115667
     33 H1         -0.3300   -1.5960   -3.0830 ha        1 30X      0.123000
     34 H1A        -0.0280   -1.3400   -1.4960 ha        1 30X      0.123000
     35 H1B         1.0970   -2.3370   -2.4230 ha        1 30X      0.123000
     36 H2          0.4030   -0.6560   -2.4560 DU        1 30X      0.241000
     37 H4          3.0960    0.0950   -2.1980 h1        1 30X      0.148500
     38 H4A         4.4100   -0.4920   -1.3270 h1        1 30X      0.148500
     39 H11        -1.7030   -0.3060    0.9580 ha        1 30X      0.124000
     40 N3          2.0850    0.0010   -1.2060 nh        1 30X      0.189000
     41 H231        0.6810    1.2040   -3.2010 DU        1 30X      0.159000
@<TRIPOS>BOND
     1    1   15 1   
     2    1   16 1   
     3    1   25 1   
     4    2   17 1   
     5    2   18 1   
     6    3    4 1   
     7    3    5 1   
     8    3   17 1   
     9    4   15 1   
    10    4   26 1   
    11    5   19 1   
    12    5   20 1   
    13    5   21 1   
    14    6   24 1   
    15    6   27 1   
    16    6   28 1   
    17    6   29 1   
    18    7   24 1   
    19    7   30 1   
    20    7   31 1   
    21    7   32 1   
    22    8    9 1   
    23    8   33 1   
    24    8   34 1   
    25    8   35 1   
    26    8   36 1   
    27    9   22 1   
    28    9   36 1   
    29    9   40 1   
    30   10   11 1   
    31   10   37 1   
    32   10   38 1   
    33   10   40 1   
    34   11   12 1   
    35   11   13 1   
    36   11   14 1   
    37   15   40 1   
    38   16   17 1   
    39   16   39 1   
    40   22   23 1   
    41   22   24 1   
    42   22   41 1   
    43   24   41 1   
@<TRIPOS>SUBSTRUCTURE
     1 30X         1 TEMP              0 ****  ****    0 ROOT
