@<TRIPOS>MOLECULE
30X
   42    42     1     0     0
SMALL
bcc


@<TRIPOS>ATOM
      1 C10         0.9730   -1.5180    0.7550 ca        1 30X     -0.083000
      2 C13        -0.5210   -0.3930    3.9670 cg        1 30X      0.143800
      3 C15         0.5560    0.8830    2.1520 ca        1 30X     -0.124300
      4 C16         1.2030    0.9080    0.9170 ca        1 30X     -0.070000
      5 C17         0.3420    2.2210    2.8920 c3        1 30X      0.695200
      6 C24        -1.1010    2.3930   -3.4930 c3        1 30X      0.079100
      7 C25         0.9920    2.4960   -4.7780 c3        1 30X      0.079100
      8 C1         -0.1030   -0.8550   -2.1120 c3        1 30X     -0.137100
      9 C2          1.2120   -0.1070   -2.2760 c3        1 30X      0.063500
     10 C4          3.0610   -1.4000   -1.2170 c3        1 30X      0.030800
     11 C5          4.2930   -1.0850   -2.1600 c3        1 30X      0.635900
     12 F6          5.2200   -2.0760   -2.1120 f         1 30X     -0.193633
     13 F7          3.9170   -0.9430   -3.4700 f         1 30X     -0.193633
     14 F8          4.9150    0.0880   -1.8320 f         1 30X     -0.193633
     15 C9          1.4060   -0.2920    0.2120 ca        1 30X     -0.083400
     16 C11         0.3420   -1.5300    1.9930 ca        1 30X     -0.078000
     17 C12         0.1270   -0.3350    2.7050 ca        1 30X      0.151000
     18 N14        -1.0530   -0.4460    5.0010 n1        1 30X     -0.175800
     19 F18        -0.9450    2.4090    3.3160 f         1 30X     -0.201967
     20 F19         1.1350    2.3630    3.9950 f         1 30X     -0.201967
     21 F20         0.6150    3.3140    2.1060 f         1 30X     -0.201967
     22 C21         0.9430    1.3750   -2.5920 c         1 30X      0.510100
     23 O22         1.3360    2.3130   -1.9130 o         1 30X     -0.385100
     24 N23         0.1640    1.6750   -3.8400 n4        1 30X     -0.569200
     25 H10         1.1310   -2.4770    0.2310 ha        1 30X      0.166000
     26 H16         1.5510    1.8830    0.5190 ha        1 30X      0.187000
     27 H24        -1.6600    2.6230   -4.4430 hx        1 30X      0.127533
     28 H24A       -0.8530    3.3550   -2.9640 hx        1 30X      0.127533
     29 H24B       -1.7300    1.7380   -2.8320 hx        1 30X      0.127533
     30 H25         1.2910    3.4550   -4.2720 hx        1 30X      0.127533
     31 H25A        1.9060    1.9170   -5.0770 hx        1 30X      0.127533
     32 H25B        0.3780    2.7310   -5.6920 hx        1 30X      0.127533
     33 H1         -0.6280   -0.9250   -3.0980 hc        1 30X      0.100700
     34 H1A         0.0790   -1.9060   -1.7640 hc        1 30X      0.100700
     35 H1B        -0.7750   -0.3560   -1.3690 hc        1 30X      0.100700
     36 H2          1.7820   -0.5420   -3.1640 hx        1 30X      0.152700
     37 H4          3.4810   -1.6610   -0.1970 hx        1 30X      0.161200
     38 H4A         2.5140   -2.2930   -1.6320 hx        1 30X      0.161200
     39 H11         0.0100   -2.4920    2.4300 ha        1 30X      0.206000
     40 N3          2.1350   -0.2350   -1.0710 n4        1 30X     -0.544800
     41 H231       -0.0800    0.7900   -4.3090 hn        1 30X      0.464800
     42 H31         2.7260    0.6220   -1.0340 hn        1 30X      0.481800
@<TRIPOS>BOND
     1    1   15 ar  
     2    1   16 ar  
     3    1   25 1   
     4    2   17 1   
     5    2   18 3   
     6    3    4 ar  
     7    3    5 1   
     8    3   17 ar  
     9    4   15 ar  
    10    4   26 1   
    11    5   19 1   
    12    5   20 1   
    13    5   21 1   
    14    6   24 1   
    15    6   27 1   
    16    6   28 1   
    17    6   29 1   
    18    7   24 1   
    19    7   30 1   
    20    7   31 1   
    21    7   32 1   
    22    8    9 1   
    23    8   33 1   
    24    8   34 1   
    25    8   35 1   
    26    9   22 1   
    27    9   36 1   
    28    9   40 1   
    29   10   11 1   
    30   10   37 1   
    31   10   38 1   
    32   10   40 1   
    33   11   12 1   
    34   11   13 1   
    35   11   14 1   
    36   15   40 1   
    37   16   17 ar  
    38   16   39 1   
    39   22   23 2   
    40   22   24 1   
    41   24   41 1   
    42   40   42 1   
@<TRIPOS>SUBSTRUCTURE
     1 30X         1 TEMP              0 ****  ****    0 ROOT
