@<TRIPOS>MOLECULE
30Z
   44    41     1     0     0
SMALL
bcc


@<TRIPOS>ATOM
      1 O25        -5.7750    1.6690    0.9340 oh        1 30Z     -0.272000
      2 C19        -4.7630    1.8750   -0.0200 c2        1 30Z     -0.005000
      3 C18        -3.4300    1.7450    0.3440 c2        1 30Z     -0.167000
      4 C20        -5.0970    2.1500   -1.3370 c1        1 30Z      0.062000
      5 O23        -6.4470    2.2970   -1.7030 o         1 30Z     -0.249000
      6 C21        -4.1000    2.2940   -2.2900 c2        1 30Z     -0.131000
      7 C22        -2.7690    2.1630   -1.9260 c1        1 30Z     -0.126000
      8 C17        -2.4340    1.8890   -0.6090 c1        1 30Z     -0.069000
      9 C15        -0.9790    1.7370   -0.2130 c3        1 30Z     -0.119000
     10 C14        -0.7180    0.3070    0.2110 c3        1 30Z     -0.098000
     11 C16        -1.2290    0.0980    1.6200 c3        1 30Z     -0.210000
     12 C12         0.7690    0.0310    0.1680 c3        1 30Z     -0.098000
     13 C13         1.4770    0.9250    1.1620 c3        1 30Z     -0.211000
     14 C11         1.0230   -1.4180    0.5220 c3        1 30Z     -0.120000
     15 C3          2.4500   -1.7810    0.1680 c2        1 30Z     -0.065000
     16 C2          2.9000   -1.6320   -1.1340 c2        1 30Z     -0.130000
     17 C4          3.2750   -2.3530    1.1240 c1        1 30Z     -0.132000
     18 C5          4.5480   -2.7760    0.7780 c1        1 30Z      0.028500
     19 O9          5.3670   -3.4030    1.7370 oh        1 30Z     -0.261000
     20 C6          4.9980   -2.6270   -0.5240 c1        1 30Z      0.028500
     21 C1          4.1740   -2.0550   -1.4800 c1        1 30Z     -0.167000
     22 O7          6.2750   -3.0970   -0.8860 oh        1 30Z     -0.261000
     23 H25        -5.7100    2.2830    1.5750 ho        1 30Z      0.228000
     24 H18        -3.1950    1.5520    1.2700 ha        1 30Z      0.136000
     25 H23        -6.7670    1.5130   -1.9780 ho        1 30Z      0.235000
     26 H21        -4.3360    2.4870   -3.2170 ha        1 30Z      0.153000
     27 H22        -2.0670    2.2650   -2.5970 ha        1 30Z      0.136000
     28 H151       -0.7780    2.3390    0.5300 hc        1 30Z      0.089500
     29 H152       -0.4080    1.9590   -0.9760 hc        1 30Z      0.089500
     30 H14        -1.1800   -0.3020   -0.3960 hc        1 30Z      0.089000
     31 H161       -2.1720    0.3530    1.6660 hc        1 30Z      0.075667
     32 H162       -0.7110    0.6500    2.2400 hc        1 30Z      0.075667
     33 H163       -1.1340   -0.8470    1.8650 hc        1 30Z      0.075667
     34 H12         1.1080    0.2110   -0.7300 hc        1 30Z      0.088000
     35 H131        1.3500    1.8630    0.9070 hc        1 30Z      0.077000
     36 H132        2.4340    0.7150    1.1670 hc        1 30Z      0.077000
     37 H133        1.1060    0.7770    2.0570 hc        1 30Z      0.077000
     38 H111        0.8810   -1.5490    1.4810 hc        1 30Z      0.091000
     39 H112        0.4080   -1.9890    0.0200 hc        1 30Z      0.091000
     40 H2          2.3190   -1.2290   -1.8080 ha        1 30Z      0.136000
     41 H4          2.9570   -2.4630    2.0420 ha        1 30Z      0.153000
     42 H1          4.4910   -1.9500   -2.3980 ha        1 30Z      0.134000
     43 H9          5.1240   -4.2540    1.8240 ho        1 30Z      0.232000
     44 H7          6.7650   -2.4200   -1.1880 ho        1 30Z      0.232000
@<TRIPOS>BOND
     1    1    2 1   
     2    1   23 1   
     3    2    3 1   
     4    2    4 1   
     5    3    8 1   
     6    3   24 1   
     7    4    6 1   
     8    5   25 1   
     9    6    7 1   
    10    6   26 1   
    11    7   27 1   
    12    8    9 1   
    13    9   10 1   
    14    9   28 1   
    15    9   29 1   
    16   10   11 1   
    17   10   12 1   
    18   10   30 1   
    19   11   31 1   
    20   11   32 1   
    21   11   33 1   
    22   12   13 1   
    23   12   14 1   
    24   12   34 1   
    25   13   35 1   
    26   13   36 1   
    27   13   37 1   
    28   14   15 1   
    29   14   38 1   
    30   14   39 1   
    31   15   16 1   
    32   15   17 1   
    33   16   21 1   
    34   16   40 1   
    35   17   41 1   
    36   18   19 1   
    37   18   20 1   
    38   19   43 1   
    39   20   22 1   
    40   21   42 1   
    41   22   44 1   
@<TRIPOS>SUBSTRUCTURE
     1 30Z         1 TEMP              0 ****  ****    0 ROOT
