@<TRIPOS>MOLECULE
30Z
   44    45     1     0     0
SMALL
bcc


@<TRIPOS>ATOM
      1 O25        -6.0820    0.9750    1.2030 oh        1 30Z     -0.518100
      2 C19        -4.9420    0.8490    0.4340 ca        1 30Z      0.041100
      3 C18        -3.6770    0.6010    0.9700 ca        1 30Z     -0.169000
      4 C20        -5.1150    0.9870   -0.9600 ca        1 30Z      0.108100
      5 O23        -6.3350    1.2330   -1.5420 oh        1 30Z     -0.494600
      6 C21        -4.0050    0.8730   -1.8070 ca        1 30Z     -0.131000
      7 C22        -2.7480    0.6260   -1.2630 ca        1 30Z     -0.125000
      8 C17        -2.5730    0.4890    0.1190 ca        1 30Z     -0.076800
      9 C15        -1.2150    0.2380    0.6770 c3        1 30Z     -0.034600
     10 C14        -0.7760   -1.2150    0.4920 c3        1 30Z     -0.059700
     11 C16        -1.4410   -2.0810    1.5430 c3        1 30Z     -0.090600
     12 C12         0.7520   -1.3170    0.5450 c3        1 30Z     -0.059700
     13 C13         1.2190   -2.7270    0.8440 c3        1 30Z     -0.090600
     14 C11         1.3590   -0.8500   -0.7790 c3        1 30Z     -0.034600
     15 C3          2.7760   -0.4190   -0.6260 ca        1 30Z     -0.076800
     16 C2          3.8240   -1.2550   -1.0250 ca        1 30Z     -0.125000
     17 C4          3.0620    0.8400   -0.0860 ca        1 30Z     -0.169000
     18 C5          4.3900    1.2510    0.0480 ca        1 30Z      0.041100
     19 O9          4.7580    2.4750    0.5710 oh        1 30Z     -0.518100
     20 C6          5.4450    0.4050   -0.3560 ca        1 30Z      0.108100
     21 C1          5.1510   -0.8540   -0.8950 ca        1 30Z     -0.131000
     22 O7          6.7690    0.7570   -0.2470 oh        1 30Z     -0.494600
     23 H25        -5.8270    0.8590    2.1290 ho        1 30Z      0.429000
     24 H18        -3.5530    0.4930    2.0580 ha        1 30Z      0.135000
     25 H23        -6.9980    1.2840   -0.8360 ho        1 30Z      0.436500
     26 H21        -4.1450    0.9810   -2.8920 ha        1 30Z      0.153000
     27 H22        -1.8770    0.5360   -1.9300 ha        1 30Z      0.136500
     28 H151       -0.4840    0.9230    0.1680 hc        1 30Z      0.048700
     29 H152       -1.1930    0.4910    1.7710 hc        1 30Z      0.048700
     30 H14        -1.1160   -1.5660   -0.5240 hc        1 30Z      0.053200
     31 H161       -1.0000   -1.8890    2.5510 hc        1 30Z      0.036700
     32 H162       -2.5340   -1.8510    1.5840 hc        1 30Z      0.036700
     33 H163       -1.3170   -3.1630    1.3000 hc        1 30Z      0.036700
     34 H12         1.1200   -0.6390    1.3670 hc        1 30Z      0.053200
     35 H131        2.3260   -2.7950    0.7060 hc        1 30Z      0.036700
     36 H132        0.9760   -3.0090    1.8970 hc        1 30Z      0.036700
     37 H133        0.7310   -3.4590    0.1570 hc        1 30Z      0.036700
     38 H111        1.2900   -1.6850   -1.5280 hc        1 30Z      0.048700
     39 H112        0.7600    0.0070   -1.1910 hc        1 30Z      0.048700
     40 H2          3.5990   -2.2460   -1.4490 ha        1 30Z      0.136500
     41 H4          2.2440    1.5030    0.2300 ha        1 30Z      0.135000
     42 H1          5.9770   -1.5090   -1.2090 ha        1 30Z      0.153000
     43 H9          3.9480    2.9600    0.7850 ho        1 30Z      0.429000
     44 H7          6.8100    1.6490    0.1320 ho        1 30Z      0.436500
@<TRIPOS>BOND
     1    1    2 1   
     2    1   23 1   
     3    2    3 ar  
     4    2    4 ar  
     5    3    8 ar  
     6    3   24 1   
     7    4    5 1   
     8    4    6 ar  
     9    5   25 1   
    10    6    7 ar  
    11    6   26 1   
    12    7    8 ar  
    13    7   27 1   
    14    8    9 1   
    15    9   10 1   
    16    9   28 1   
    17    9   29 1   
    18   10   11 1   
    19   10   12 1   
    20   10   30 1   
    21   11   31 1   
    22   11   32 1   
    23   11   33 1   
    24   12   13 1   
    25   12   14 1   
    26   12   34 1   
    27   13   35 1   
    28   13   36 1   
    29   13   37 1   
    30   14   15 1   
    31   14   38 1   
    32   14   39 1   
    33   15   16 ar  
    34   15   17 ar  
    35   16   21 ar  
    36   16   40 1   
    37   17   18 ar  
    38   17   41 1   
    39   18   19 1   
    40   18   20 ar  
    41   19   43 1   
    42   20   21 ar  
    43   20   22 1   
    44   21   42 1   
    45   22   44 1   
@<TRIPOS>SUBSTRUCTURE
     1 30Z         1 TEMP              0 ****  ****    0 ROOT
