@<TRIPOS>MOLECULE
30Z
   44    45     1     0     0
SMALL
bcc


@<TRIPOS>ATOM
      1 O25         0.0900    0.4500   -0.2040 oh        1 30Z     -0.495100
      2 C19         1.4500    0.3790   -0.0170 ca        1 30Z      0.113100
      3 C18         1.9090    0.1350    1.2830 ca        1 30Z     -0.133000
      4 C20         2.3760    0.5370   -1.0700 ca        1 30Z      0.035600
      5 O23         1.8430    0.7730   -2.3220 oh        1 30Z     -0.517600
      6 C21         3.7480    0.4520   -0.8180 ca        1 30Z     -0.167000
      7 C22         4.1930    0.2090    0.4790 ca        1 30Z     -0.129500
      8 C17         3.2820    0.0510    1.5310 ca        1 30Z     -0.071300
      9 C15         3.7810   -0.1960    2.9120 c3        1 30Z     -0.036600
     10 C14         4.2150   -1.6490    3.1150 c3        1 30Z     -0.059200
     11 C16         2.9920   -2.5150    3.3360 c3        1 30Z     -0.091600
     12 C12         5.2070   -1.7470    4.2780 c3        1 30Z     -0.059200
     13 C13         5.3030   -3.1560    4.8270 c3        1 30Z     -0.091600
     14 C11         6.5930   -1.2790    3.8310 c3        1 30Z     -0.036600
     15 C3          7.4390   -0.8530    4.9810 ca        1 30Z     -0.071300
     16 C2          8.4530   -1.6850    5.4660 ca        1 30Z     -0.129500
     17 C4          7.2200    0.3970    5.5710 ca        1 30Z     -0.133000
     18 C5          8.0170    0.8100    6.6440 ca        1 30Z      0.113100
     19 O9          7.7580    2.0470    7.1850 oh        1 30Z     -0.495100
     20 C6          9.0390   -0.0380    7.1250 ca        1 30Z      0.035600
     21 C1          9.2540   -1.2840    6.5330 ca        1 30Z     -0.167000
     22 O7          9.7820    0.4440    8.1850 oh        1 30Z     -0.517600
     23 H25        -0.0740    0.6310   -1.1420 ho        1 30Z      0.436500
     24 H18         1.1770    0.0130    2.0950 ha        1 30Z      0.153500
     25 H23         2.5800    0.8800   -2.9400 ho        1 30Z      0.428000
     26 H21         4.4670    0.5770   -1.6400 ha        1 30Z      0.134000
     27 H22         5.2720    0.1420    0.6810 ha        1 30Z      0.135500
     28 H151        2.9820    0.0560    3.6610 hc        1 30Z      0.050700
     29 H152        4.6460    0.4920    3.1140 hc        1 30Z      0.050700
     30 H14         4.7360   -2.0010    2.1800 hc        1 30Z      0.053700
     31 H161        2.5460   -2.3210    4.3410 hc        1 30Z      0.036700
     32 H162        3.2550   -3.5970    3.2640 hc        1 30Z      0.036700
     33 H163        2.2210   -2.2860    2.5580 hc        1 30Z      0.036700
     34 H12         4.8490   -1.0680    5.1030 hc        1 30Z      0.053700
     35 H131        5.4800   -3.8900    4.0050 hc        1 30Z      0.036700
     36 H132        4.3630   -3.4380    5.3600 hc        1 30Z      0.036700
     37 H133        6.1520   -3.2230    5.5510 hc        1 30Z      0.036700
     38 H111        6.4920   -0.4180    3.1170 hc        1 30Z      0.050700
     39 H112        7.0970   -2.1120    3.2710 hc        1 30Z      0.050700
     40 H2          8.6230   -2.6680    5.0010 ha        1 30Z      0.135500
     41 H4          6.4260    1.0620    5.2030 ha        1 30Z      0.153500
     42 H1         10.0500   -1.9420    6.9090 ha        1 30Z      0.134000
     43 H9          8.3840    2.1910    7.9120 ho        1 30Z      0.436500
     44 H7         10.4370   -0.2300    8.4150 ho        1 30Z      0.428000
@<TRIPOS>BOND
     1    1    2 1   
     2    1   23 1   
     3    2    3 ar  
     4    2    4 ar  
     5    3    8 ar  
     6    3   24 1   
     7    4    5 1   
     8    4    6 ar  
     9    5   25 1   
    10    6    7 ar  
    11    6   26 1   
    12    7    8 ar  
    13    7   27 1   
    14    8    9 1   
    15    9   10 1   
    16    9   28 1   
    17    9   29 1   
    18   10   11 1   
    19   10   12 1   
    20   10   30 1   
    21   11   31 1   
    22   11   32 1   
    23   11   33 1   
    24   12   13 1   
    25   12   14 1   
    26   12   34 1   
    27   13   35 1   
    28   13   36 1   
    29   13   37 1   
    30   14   15 1   
    31   14   38 1   
    32   14   39 1   
    33   15   16 ar  
    34   15   17 ar  
    35   16   21 ar  
    36   16   40 1   
    37   17   18 ar  
    38   17   41 1   
    39   18   19 1   
    40   18   20 ar  
    41   19   43 1   
    42   20   21 ar  
    43   20   22 1   
    44   21   42 1   
    45   22   44 1   
@<TRIPOS>SUBSTRUCTURE
     1 30Z         1 TEMP              0 ****  ****    0 ROOT
