@<TRIPOS>MOLECULE
30Z
   44    45     1     0     0
SMALL
bcc


@<TRIPOS>ATOM
      1 O25         0.0580    0.4050   -0.1720 oh        1 30Z     -0.495100
      2 C19         1.4190    0.3630    0.0120 ca        1 30Z      0.113100
      3 C18         1.8860    0.1010    1.3060 ca        1 30Z     -0.133000
      4 C20         2.3400    0.5690   -1.0370 ca        1 30Z      0.035600
      5 O23         1.8000    0.8210   -2.2830 oh        1 30Z     -0.517600
      6 C21         3.7140    0.5120   -0.7880 ca        1 30Z     -0.167000
      7 C22         4.1660    0.2510    0.5030 ca        1 30Z     -0.129500
      8 C17         3.2610    0.0460    1.5520 ca        1 30Z     -0.071300
      9 C15         3.7670   -0.2210    2.9270 c3        1 30Z     -0.036600
     10 C14         4.2370   -1.6670    3.0960 c3        1 30Z     -0.059200
     11 C16         3.0360   -2.5670    3.2980 c3        1 30Z     -0.091600
     12 C12         5.2330   -1.7670    4.2560 c3        1 30Z     -0.059200
     13 C13         5.3640   -3.1850    4.7720 c3        1 30Z     -0.091600
     14 C11         6.6070   -1.2550    3.8180 c3        1 30Z     -0.036600
     15 C3          7.4430   -0.8330    4.9760 ca        1 30Z     -0.071300
     16 C2          8.4780   -1.6510    5.4420 ca        1 30Z     -0.129500
     17 C4          7.1940    0.3970    5.5950 ca        1 30Z     -0.133000
     18 C5          7.9820    0.8060    6.6760 ca        1 30Z      0.113100
     19 O9          7.6950    2.0240    7.2440 oh        1 30Z     -0.495100
     20 C6          9.0250   -0.0270    7.1370 ca        1 30Z      0.035600
     21 C1          9.2700   -1.2550    6.5180 ca        1 30Z     -0.167000
     22 O7          9.7580    0.4490    8.2070 oh        1 30Z     -0.517600
     23 H25        -0.1110    0.6030   -1.1060 ho        1 30Z      0.436500
     24 H18         1.1580   -0.0580    2.1160 ha        1 30Z      0.153500
     25 H23         2.5330    0.9600   -2.8990 ho        1 30Z      0.428000
     26 H21         4.4290    0.6740   -1.6070 ha        1 30Z      0.134000
     27 H22         5.2470    0.2060    0.7030 ha        1 30Z      0.135500
     28 H151        4.6150    0.4840    3.1430 hc        1 30Z      0.050700
     29 H152        2.9640   -0.0060    3.6820 hc        1 30Z      0.050700
     30 H14         4.7650   -1.9840    2.1530 hc        1 30Z      0.053700
     31 H161        2.5870   -2.4080    4.3080 hc        1 30Z      0.036700
     32 H162        3.3250   -3.6410    3.2010 hc        1 30Z      0.036700
     33 H163        2.2590   -2.3400    2.5260 hc        1 30Z      0.036700
     34 H12         4.8590   -1.1150    5.0960 hc        1 30Z      0.053700
     35 H131        4.4320   -3.5020    5.2990 hc        1 30Z      0.036700
     36 H132        5.5590   -3.8950    3.9330 hc        1 30Z      0.036700
     37 H133        6.2160   -3.2470    5.4940 hc        1 30Z      0.036700
     38 H111        6.4830   -0.3810    3.1240 hc        1 30Z      0.050700
     39 H112        7.1300   -2.0620    3.2390 hc        1 30Z      0.050700
     40 H2          8.6700   -2.6200    4.9560 ha        1 30Z      0.135500
     41 H4          6.3840    1.0520    5.2410 ha        1 30Z      0.153500
     42 H1         10.0820   -1.9010    6.8790 ha        1 30Z      0.134000
     43 H9          8.3180    2.1680    7.9740 ho        1 30Z      0.436500
     44 H7         10.4290   -0.2140    8.4220 ho        1 30Z      0.428000
@<TRIPOS>BOND
     1    1    2 1   
     2    1   23 1   
     3    2    3 ar  
     4    2    4 ar  
     5    3    8 ar  
     6    3   24 1   
     7    4    5 1   
     8    4    6 ar  
     9    5   25 1   
    10    6    7 ar  
    11    6   26 1   
    12    7    8 ar  
    13    7   27 1   
    14    8    9 1   
    15    9   10 1   
    16    9   28 1   
    17    9   29 1   
    18   10   11 1   
    19   10   12 1   
    20   10   30 1   
    21   11   31 1   
    22   11   32 1   
    23   11   33 1   
    24   12   13 1   
    25   12   14 1   
    26   12   34 1   
    27   13   35 1   
    28   13   36 1   
    29   13   37 1   
    30   14   15 1   
    31   14   38 1   
    32   14   39 1   
    33   15   16 ar  
    34   15   17 ar  
    35   16   21 ar  
    36   16   40 1   
    37   17   18 ar  
    38   17   41 1   
    39   18   19 1   
    40   18   20 ar  
    41   19   43 1   
    42   20   21 ar  
    43   20   22 1   
    44   21   42 1   
    45   22   44 1   
@<TRIPOS>SUBSTRUCTURE
     1 30Z         1 TEMP              0 ****  ****    0 ROOT
