@<TRIPOS>MOLECULE
310
   58    45     1     0     0
SMALL
bcc


@<TRIPOS>ATOM
      1 C23        -0.8780    1.2690    5.5410 c1        1 310     -0.115667
      2 C22        -1.5090    2.0110    4.5510 c1        1 310     -0.025000
      3 C21        -0.2230   -3.3460    2.8840 c1        1 310      0.177000
      4 C20        -1.1800   -1.0910    2.5120 c1        1 310      0.291000
      5 C24        -1.3970    1.2420    6.8250 c1        1 310     -0.115667
      6 C26        -3.1800    2.6970    6.1360 c1        1 310     -0.115667
      7 C27        -2.6600    2.7240    4.8480 c1        1 310     -0.049000
      8 C18        -0.9250    1.8730    3.2850 c1        1 310     -0.050000
      9 C10         2.1060    0.4150   -1.3840 c1        1 310     -0.115667
     10 C7          1.3510    0.7480   -5.5840 c1        1 310     -0.159000
     11 C5          2.2440   -1.1480   -4.4010 c1        1 310     -0.181000
     12 C6          2.0890    0.2240   -4.5270 c1        1 310      0.076500
     13 C1          0.5320   -3.9180   -7.3360 c3        1 310     -0.266000
     14 C2          0.2970   -2.4210   -7.4300 c2        1 310      0.269000
     15 C3          0.9220   -1.4790   -6.3890 c2        1 310     -0.179000
     16 C4          1.6600   -2.0020   -5.3330 c1        1 310     -0.063000
     17 C11         1.5310    0.6560   -0.1330 c1        1 310     -0.115667
     18 C12         0.6520    1.7200    0.0350 c1        1 310     -0.048000
     19 C13         0.3450    2.5460   -1.0450 c1        1 310     -0.099000
     20 C14         0.9190    2.3060   -2.2930 c1        1 310     -0.181000
     21 C15         0.1450    2.0310    1.3410 c1        1 310     -0.050000
     22 C16         0.5080    3.1180    2.1150 c1        1 310     -0.166500
     23 C17        -0.1480    3.0240    3.3120 c1        1 310     -0.166500
     24 O1         -0.3480   -1.9640   -8.3530 o         1 310     -0.298000
     25 C8          0.7680   -0.1040   -6.5140 c2        1 310     -0.051000
     26 O2          2.6020    1.2020   -3.6310 os        1 310     -0.155000
     27 C9          1.7990    1.2400   -2.4610 c1        1 310      0.076500
     28 N1         -0.7410    1.2650    2.0700 n2        1 310     -0.118000
     29 C19        -1.4560    0.1020    1.5860 c1        1 310     -0.051000
     30 O3         -1.5820   -1.0740    3.6590 o         1 310     -0.354000
     31 N2         -0.5060   -2.2420    2.0100 n2        1 310     -0.363000
     32 N3         -0.6610   -3.3300    4.1330 n1        1 310     -0.315000
     33 N4          0.5290   -4.4590    2.4070 n3        1 310     -0.321000
     34 C25        -2.5490    1.9560    7.1230 c1        1 310     -0.115667
     35 CL1        -3.3790    3.7540    3.6410 cl        1 310     -0.008000
     36 H23        -0.0670    0.7660    5.3320 ha        1 310      0.146833
     37 H24        -0.9530    0.7200    7.5210 ha        1 310      0.146833
     38 H26        -3.9910    3.2000    6.3460 ha        1 310      0.146833
     39 H10         2.7240   -0.3330   -1.5020 ha        1 310      0.146833
     40 H7          1.2420    1.7200   -5.6720 ha        1 310      0.158000
     41 H5          2.7640   -1.5170   -3.6560 ha        1 310      0.152000
     42 H1          0.0230   -4.3750   -8.0440 hc        1 310      0.104333
     43 H1A         0.2370   -4.2410   -6.4620 hc        1 310      0.104333
     44 H1B         1.4860   -4.1060   -7.4480 hc        1 310      0.104333
     45 H4          1.7690   -2.9720   -5.2450 ha        1 310      0.139000
     46 H11         1.7460    0.0790    0.6210 ha        1 310      0.146833
     47 H13        -0.2730    3.2940   -0.9270 ha        1 310      0.145000
     48 H14         0.7020    2.8880   -3.0520 ha        1 310      0.152000
     49 H16         1.1270    3.8300    1.8520 DU        1 310      0.171333
     50 H17        -0.0820    3.6570    4.0570 DU        1 310      0.171333
     51 H8          0.2490    0.2640   -7.2570 ha        1 310      0.162000
     52 H19        -2.4210    0.2920    1.5730 ha        1 310      0.141000
     53 H19A       -1.1540   -0.1120    0.6800 ha        1 310      0.141000
     54 HN2        -0.2550   -2.2770    1.1360 hn        1 310      0.252000
     55 HN3        -1.1430   -2.6170    4.4400 DU        1 310      0.171333
     56 HN4         0.3960   -5.2890    2.7680 hn        1 310      0.185500
     57 HN4A        1.1130   -4.3520    1.7070 hn        1 310      0.185500
     58 H25        -2.9150    1.9370    8.0300 ha        1 310      0.146833
@<TRIPOS>BOND
     1    1    5 1   
     2    1   36 1   
     3    2    7 1   
     4    3   32 1   
     5    3   33 1   
     6    4   30 1   
     7    4   31 1   
     8    5   37 1   
     9    6   34 1   
    10    6   38 1   
    11    7   35 1   
    12    8   23 1   
    13    8   28 1   
    14    9   17 1   
    15    9   39 1   
    16   10   25 1   
    17   10   40 1   
    18   11   12 1   
    19   11   41 1   
    20   12   26 1   
    21   13   14 1   
    22   13   42 1   
    23   13   43 1   
    24   13   44 1   
    25   14   15 1   
    26   14   24 1   
    27   15   16 1   
    28   15   25 1   
    29   16   45 1   
    30   17   46 1   
    31   18   19 1   
    32   19   47 1   
    33   20   27 1   
    34   20   48 1   
    35   21   22 1   
    36   21   28 1   
    37   22   23 1   
    38   25   51 1   
    39   26   27 1   
    40   29   52 1   
    41   29   53 1   
    42   31   54 1   
    43   33   56 1   
    44   33   57 1   
    45   34   58 1   
@<TRIPOS>SUBSTRUCTURE
     1 310         1 TEMP              0 ****  ****    0 ROOT
