@<TRIPOS>MOLECULE
310
   60    80     1     0     0
SMALL
bcc


@<TRIPOS>ATOM
      1 C23         0.0000    0.0000    0.0000 c3        1 310     -0.199000
      2 C22         1.3960    0.0000    0.0000 c2        1 310     -0.158000
      3 C21        -2.6670   -1.6490   -3.4050 DU        1 310     -0.056000
      4 C20        -0.3760   -1.3690   -2.8950 c3        1 310      0.138000
      5 C24        -0.6870   -0.0000    1.1960 c2        1 310      0.046000
      6 C26         1.3880    0.0010    2.4030 c2        1 310     -0.081000
      7 C27         2.0880    0.0000    1.2140 c3        1 310     -0.056000
      8 C18         2.1380   -0.0010   -1.2770 c2        1 310     -0.276000
      9 C10         4.2040   -1.7830   -6.5870 c3        1 310      0.223000
     10 C7          1.1020   -2.8990   -9.3730 c3        1 310     -0.103000
     11 C5          1.9590   -5.0690   -8.7630 c2        1 310     -0.208000
     12 C6          2.1010   -3.6860   -8.8080 c3        1 310     -0.317000
     13 C1         -2.4620   -4.6550  -11.0070 c3        1 310     -0.244000
     14 C3         -0.1730   -4.8750   -9.8450 c2        1 310     -0.136000
     15 C4          0.8350   -5.6630   -9.2750 c2        1 310      0.019000
     16 C11         4.1100   -1.1520   -5.3660 c3        1 310      0.510000
     17 C12         2.9190   -1.2150   -4.6390 c2        1 310     -0.015000
     18 C13         1.8280   -1.9200   -5.1540 c3        1 310     -0.363000
     19 C14         1.9320   -2.5480   -6.3760 c3        1 310     -0.339000
     20 C15         2.8130   -0.5400   -3.3290 c3        1 310      0.255000
     21 C16         3.5790    0.5070   -2.9030 c3        1 310      0.013000
     22 C17         3.1560    0.8430   -1.6130 c2        1 310      0.123000
     23 O1         -1.5040   -6.7120  -10.3560 o         1 310     -0.206000
     24 C8         -0.0260   -3.4840   -9.8880 c2        1 310     -0.241000
     25 C9          3.1170   -2.4830   -7.0960 c3        1 310      0.148000
     26 N1          1.9280   -0.8550   -2.3300 n3        1 310      0.168000
     27 C19         0.9260   -1.9240   -2.3790 c3        1 310     -0.255000
     28 O3         -0.4600   -0.1970   -3.1920 o         1 310     -0.309000
     29 N2         -1.4470   -2.1760   -3.0250 ny        1 310     -0.107000
     30 N3         -2.7590   -0.3930   -3.7340 n2        1 310      0.002000
     31 N4         -3.7830   -2.4500   -3.4330 nz        1 310      0.226000
     32 C25         0.0040    0.0010    2.3950 c3        1 310      0.074000
     33 Cl1         3.8240   -0.0000    1.2260 cl        1 310      0.251000
     34 H23         0.3020   -0.4620   -0.9320 hc        1 310      0.142000
     35 H24        -0.7470   -0.4720    0.2230 DU        1 310      0.197000
     36 H26         0.8460    0.0010    1.4660 DU        1 310      0.203000
     37 H10         3.5550   -1.5900   -5.7410 DU        1 310     -0.371000
     38 H7          1.1700   -2.6580   -8.3190 hc        1 310      0.292000
     39 H5          2.6640   -4.3280   -8.4050 DU        1 310      0.337000
     40 H1         -1.6510   -4.0300  -10.6540 hc        1 310      0.189500
     41 H1A        -1.4840   -4.8450  -10.5810 DU        1 310      0.324000
     42 H1B        -3.3010   -5.2290  -11.3800 hc        1 310      0.189500
     43 H4         -0.1200   -5.2190   -9.5280 ha        1 310      0.122000
     44 H11         3.4020   -1.4920   -6.1120 DU        1 310     -0.371000
     45 H13         1.6420   -2.7340   -5.8440 DU        1 310      0.190000
     46 H14         2.7810   -2.0040   -5.9820 DU        1 310      0.488000
     47 H16         2.8580   -0.1610   -3.3590 hc        1 310     -0.259000
     48 H17         2.8270    0.2170   -2.4330 DU        1 310      0.078000
     49 H8          0.5050   -2.9440   -9.1130 DU        1 310      0.244000
     50 H19         1.5270   -1.0790   -2.0650 h1        1 310      0.227000
     51 H19A        0.6970   -2.0490   -3.4310 h1        1 310      0.227000
     52 HN2        -0.6440   -2.2310   -2.4310 DU        1 310      0.214000
     53 HN3        -1.9010   -0.8870   -3.5870 DU        1 310      0.166000
     54 HN4        -2.9240   -2.5180   -2.9250 DU        1 310      0.059000
     55 HN4A       -3.2140   -1.6320   -3.5200 hn        1 310      0.154000
     56 H25        -0.6180   -0.2800    1.5540 hc        1 310     -0.039000
     57 O2          3.2150   -3.1040   -8.3000 os        1 310     -0.042000
     58 C2         -1.3790   -5.5070  -10.3950 c3        1 310      0.187000
     59 H22        -1.5920   -2.6490   -2.1550 hn        1 310      0.170000
     60 H43        -4.3430   -2.5080   -2.6060 hn        1 310      0.154000
@<TRIPOS>BOND
     1    1    2 1   
     2    1    5 1   
     3    1   34 1   
     4    1   35 1   
     5    2    7 1   
     6    2    8 1   
     7    3   29 1   
     8    3   30 1   
     9    3   31 1   
    10    3   53 1   
    11    3   54 1   
    12    4   27 1   
    13    4   28 1   
    14    4   29 1   
    15    4   52 1   
    16    5   32 1   
    17    5   35 1   
    18    6    7 1   
    19    6   32 1   
    20    6   36 1   
    21    7   33 1   
    22    7   36 1   
    23    8   22 1   
    24    8   26 1   
    25    9   16 1   
    26    9   25 1   
    27    9   37 1   
    28    9   44 1   
    29   10   12 1   
    30   10   24 1   
    31   10   38 1   
    32   10   49 1   
    33   11   12 1   
    34   11   15 1   
    35   11   39 1   
    36   12   39 1   
    37   12   57 1   
    38   13   40 1   
    39   13   41 1   
    40   13   42 1   
    41   13   58 1   
    42   14   15 1   
    43   14   24 1   
    44   14   58 1   
    45   15   43 1   
    46   16   17 1   
    47   16   37 1   
    48   16   44 1   
    49   17   18 1   
    50   17   20 1   
    51   18   19 1   
    52   18   45 1   
    53   18   46 1   
    54   19   25 1   
    55   19   45 1   
    56   19   46 1   
    57   20   21 1   
    58   20   26 1   
    59   20   48 1   
    60   21   22 1   
    61   21   47 1   
    62   21   48 1   
    63   22   48 1   
    64   23   58 1   
    65   24   49 1   
    66   25   46 1   
    67   25   57 1   
    68   26   27 1   
    69   27   50 1   
    70   27   51 1   
    71   29   52 1   
    72   29   59 1   
    73   30   53 1   
    74   31   54 1   
    75   31   55 1   
    76   31   60 1   
    77   32   36 1   
    78   32   56 1   
    79   37   44 1   
    80   41   58 1   
@<TRIPOS>SUBSTRUCTURE
     1 310         1 TEMP              0 ****  ****    0 ROOT
