@<TRIPOS>MOLECULE
310
   58    60     1     0     0
SMALL
bcc


@<TRIPOS>ATOM
      1 C23         0.5840    1.6110   -0.3240 c2        1 310     -0.130000
      2 C22         1.4490    0.4660   -0.5830 c2        1 310     -0.062000
      3 C21        -3.4970   -1.9250   -1.7300 c2        1 310      0.177000
      4 C20        -1.1550   -1.4420   -2.4810 c2        1 310      0.285000
      5 C24        -0.3600    1.6630    0.6180 c2        1 310     -0.200000
      6 C26         1.9190    0.0150    1.7990 c2        1 310     -0.467000
      7 C27         2.0450   -0.2660    0.3890 c2        1 310      0.016000
      8 C18         1.6930    0.2260   -2.0120 c2        1 310      0.159000
      9 C10         4.5180   -2.7240   -5.7160 c3        1 310     -0.169000
     10 C7          1.6100   -3.0580   -8.6200 ca        1 310     -0.145000
     11 C5          2.8110   -4.9850   -9.5300 ca        1 310     -0.145000
     12 C6          2.6950   -3.9410   -8.6060 ca        1 310      0.027000
     13 C1         -1.3760   -3.4160  -11.7000 c3        1 310     -0.267000
     14 C3          0.7150   -4.2630  -10.5240 ca        1 310     -0.151000
     15 C4          1.8120   -5.1360  -10.4890 ca        1 310     -0.068000
     16 C11         3.6640   -1.7510   -5.0550 c1        1 310     -0.086000
     17 C12         2.3490   -1.8340   -4.7500 c2        1 310     -0.241000
     18 C13         1.6800   -3.0680   -4.8980 c1        1 310     -0.086000
     19 C14         2.3400   -4.0870   -5.7360 c3        1 310     -0.169000
     20 C15         1.6090   -0.6850   -4.1450 c3        1 310      0.013000
     21 C16         2.3860    0.6210   -4.2000 c1        1 310     -0.032000
     22 C17         2.3760    1.1160   -2.8680 c2        1 310     -0.351000
     23 O1         -0.3090   -5.4680  -12.2910 o         1 310     -0.289000
     24 C8          0.6220   -3.2270   -9.5870 ca        1 310     -0.068000
     25 C9          3.5810   -3.6420   -6.4170 c2        1 310      0.053000
     26 N1          1.2830   -0.8980   -2.6960 n3        1 310     -0.223000
     27 C19         0.3190   -1.8580   -2.2800 c3        1 310     -0.057000
     28 O3         -1.4910   -0.5700   -3.3010 o         1 310     -0.351000
     29 N2         -2.0770   -2.1520   -1.7260 n         1 310     -0.373000
     30 N3         -4.1440   -0.9890   -2.3580 n2        1 310     -0.317000
     31 N4         -4.2060   -2.8540   -0.8780 n3        1 310     -0.322000
     32 C25         2.0890   -0.7660    2.8480 c1        1 310      0.253000
     33 CL1         3.0580   -1.5840    0.0000 cl        1 310     -0.005000
     34 H23         0.7480    2.4600   -1.0150 ha        1 310      0.152000
     35 H24        -0.9910    2.5520    0.7510 ha        1 310      0.122500
     36 H26         1.6320    1.0710    2.0380 ha        1 310      0.215000
     37 H10         5.1190   -3.2590   -4.9280 hc        1 310      0.163000
     38 H7          1.5430   -2.2430   -7.8820 ha        1 310      0.162000
     39 H5          3.6800   -5.6590   -9.5020 ha        1 310      0.162000
     40 H1         -2.0070   -3.3890  -10.7770 hc        1 310      0.108667
     41 H1A        -0.9050   -2.4140  -11.8470 hc        1 310      0.108667
     42 H1B        -2.0340   -3.6390  -12.5760 hc        1 310      0.108667
     43 H4          1.8740   -5.9500  -11.2310 ha        1 310      0.159000
     44 H11         5.2400   -2.2460   -6.4330 hc        1 310      0.163000
     45 H13         2.6070   -4.9450   -5.0470 hc        1 310      0.163000
     46 H14         1.5790   -4.4760   -6.4700 hc        1 310      0.163000
     47 H16         0.6250   -0.5400   -4.6890 h1        1 310      0.158000
     48 H17         2.8500    2.0370   -2.5360 ha        1 310      0.159000
     49 H8         -0.2340   -2.5320   -9.6020 ha        1 310      0.159000
     50 H19         0.5020   -2.1120   -1.1980 h1        1 310      0.141500
     51 H19A        0.4740   -2.7820   -2.9260 h1        1 310      0.141500
     52 HN2        -1.7260   -2.8110   -1.0690 hn        1 310      0.237000
     53 HN3        -3.6150   -0.3160   -2.8700 hn        1 310      0.193000
     54 HN4        -4.1620   -3.7830   -1.2460 hn        1 310      0.183500
     55 HN4A       -5.1590   -2.5740   -0.7460 hn        1 310      0.183500
     56 H25        -0.5820    0.8280    1.2960 ha        1 310      0.122500
     57 O2          3.7850   -3.7460   -7.7400 os        1 310     -0.107000
     58 C2         -0.3220   -4.4670  -11.5640 c2        1 310      0.266000
@<TRIPOS>BOND
     1    1    2 1   
     2    1    5 1   
     3    1   34 1   
     4    2    7 1   
     5    2    8 1   
     6    3   29 1   
     7    3   30 1   
     8    3   31 1   
     9    4   27 1   
    10    4   28 1   
    11    4   29 1   
    12    5   35 1   
    13    5   56 1   
    14    6    7 1   
    15    6   32 1   
    16    6   36 1   
    17    7   33 1   
    18    8   22 1   
    19    8   26 1   
    20    9   16 1   
    21    9   25 1   
    22    9   37 1   
    23    9   44 1   
    24   10   12 1   
    25   10   24 1   
    26   10   38 1   
    27   11   12 1   
    28   11   15 1   
    29   11   39 1   
    30   12   57 1   
    31   13   40 1   
    32   13   41 1   
    33   13   42 1   
    34   13   58 1   
    35   14   15 1   
    36   14   24 1   
    37   14   58 1   
    38   15   43 1   
    39   16   17 1   
    40   17   18 1   
    41   17   20 1   
    42   18   19 1   
    43   19   25 1   
    44   19   45 1   
    45   19   46 1   
    46   20   21 1   
    47   20   26 1   
    48   20   47 1   
    49   21   22 1   
    50   22   48 1   
    51   23   58 1   
    52   24   49 1   
    53   25   57 1   
    54   26   27 1   
    55   27   50 1   
    56   27   51 1   
    57   29   52 1   
    58   30   53 1   
    59   31   54 1   
    60   31   55 1   
@<TRIPOS>SUBSTRUCTURE
     1 310         1 TEMP              0 ****  ****    0 ROOT
