@<TRIPOS>MOLECULE
310
   58    61     1     0     0
SMALL
bcc


@<TRIPOS>ATOM
      1 C23         5.2140    1.4960   -0.5770 ca        1 310     -0.109000
      2 C22         4.7050    0.3740    0.0950 ca        1 310     -0.033000
      3 C21         1.8750    4.0430    0.2080 c2        1 310      0.649800
      4 C20         1.4370    1.8090    1.2400 c         1 310      0.648100
      5 C24         6.3610    2.1390   -0.1170 ca        1 310     -0.119000
      6 C26         6.5350    0.5470    1.6920 ca        1 310     -0.127000
      7 C27         5.3830   -0.1000    1.2310 ca        1 310      0.024400
      8 C18         3.5320   -0.3000   -0.4420 cc        1 310     -0.087300
      9 C10        -1.7400   -3.1000   -0.3210 ca        1 310     -0.148000
     10 C7         -4.9460   -0.8700   -0.9350 ca        1 310     -0.181000
     11 C5         -6.1520   -1.9770    0.8770 ca        1 310     -0.181000
     12 C6         -4.9770   -1.7740    0.1330 ca        1 310      0.141100
     13 C1         -8.4860    1.3270   -2.0140 c3        1 310     -0.198100
     14 C3         -7.2820   -0.3530   -0.5340 ca        1 310     -0.202600
     15 C4         -7.2950   -1.2660    0.5330 ca        1 310     -0.056000
     16 C11        -0.4170   -2.7430   -0.5520 ca        1 310     -0.099500
     17 C12         0.0250   -1.4290   -0.3170 ca        1 310     -0.036000
     18 C13        -0.8830   -0.4740    0.1590 ca        1 310     -0.099500
     19 C14        -2.2110   -0.8180    0.4030 ca        1 310     -0.148000
     20 C15         1.4090   -1.1080   -0.6190 cc        1 310     -0.052300
     21 C16         2.1390   -1.5710   -1.7310 cd        1 310     -0.178000
     22 C17         3.4680   -1.0590   -1.6220 cd        1 310     -0.154000
     23 O1         -9.5590    0.2220   -0.1950 o         1 310     -0.539100
     24 C8         -6.1010   -0.1640   -1.2610 ca        1 310     -0.056000
     25 C9         -2.6310   -2.1300    0.1620 ca        1 310      0.099100
     26 N1          2.2660   -0.3230    0.1730 na        1 310     -0.051100
     27 C19         1.9190    0.3490    1.3820 c3        1 310     -0.039700
     28 O3          0.4700    2.1840    1.9330 o         1 310     -0.613100
     29 N2          2.1130    2.6340    0.3680 n         1 310     -0.489400
     30 N3          2.9070    4.7660   -0.1540 n2        1 310     -0.875100
     31 N4          0.5370    4.5140    0.3380 nh        1 310     -0.924800
     32 C25         7.0190    1.6670    1.0190 ca        1 310     -0.112000
     33 CL1         4.8380   -1.4800    2.0620 cl        1 310     -0.083400
     34 H23         4.7030    1.8640   -1.4810 ha        1 310      0.151000
     35 H24         6.7420    3.0230   -0.6490 ha        1 310      0.146000
     36 H26         7.0600    0.1680    2.5830 ha        1 310      0.151000
     37 H10        -2.0910   -4.1270   -0.4970 ha        1 310      0.154500
     38 H7         -4.0200   -0.7220   -1.5100 ha        1 310      0.155000
     39 H5         -6.1550   -2.6960    1.7090 ha        1 310      0.155000
     40 H1         -8.2140    0.7770   -2.9480 hc        1 310      0.064367
     41 H1A        -9.4860    1.8050   -2.1570 hc        1 310      0.064367
     42 H1B        -7.7290    2.1270   -1.8300 hc        1 310      0.064367
     43 H4         -8.2290   -1.4090    1.1020 ha        1 310      0.149500
     44 H11         0.2960   -3.4950   -0.9260 ha        1 310      0.147000
     45 H13        -0.5590    0.5630    0.3420 ha        1 310      0.147000
     46 H14        -2.9230   -0.0690    0.7800 ha        1 310      0.154500
     47 H16         1.7510   -2.2010   -2.5260 ha        1 310      0.158000
     48 H17         4.2870   -1.2310   -2.3140 ha        1 310      0.160000
     49 H8         -6.0720    0.5440   -2.1040 ha        1 310      0.149500
     50 H19         2.8150    0.3690    2.0700 h1        1 310      0.104700
     51 H19A        1.0810   -0.2130    1.8900 h1        1 310      0.104700
     52 HN2         2.9430    2.2860   -0.0700 hn        1 310      0.351500
     53 HN3         2.7210    5.7320   -0.3130 hn        1 310      0.403400
     54 HN4        -0.1190    3.8770    0.7390 hn        1 310      0.407800
     55 HN4A        0.4790    5.4230    0.7460 hn        1 310      0.407800
     56 H25         7.9230    2.1750    1.3850 ha        1 310      0.142000
     57 O2         -3.9070   -2.5830    0.4910 os        1 310     -0.246200
     58 C2         -8.5240    0.3810   -0.8560 c         1 310      0.579700
@<TRIPOS>BOND
     1    1    2 ar  
     2    1    5 ar  
     3    1   34 1   
     4    2    7 ar  
     5    2    8 1   
     6    3   29 1   
     7    3   30 2   
     8    3   31 1   
     9    4   27 1   
    10    4   28 2   
    11    4   29 1   
    12    5   32 ar  
    13    5   35 1   
    14    6    7 ar  
    15    6   32 ar  
    16    6   36 1   
    17    7   33 1   
    18    8   22 2   
    19    8   26 1   
    20    9   16 ar  
    21    9   25 ar  
    22    9   37 1   
    23   10   12 ar  
    24   10   24 ar  
    25   10   38 1   
    26   11   12 ar  
    27   11   15 ar  
    28   11   39 1   
    29   12   57 1   
    30   13   40 1   
    31   13   41 1   
    32   13   42 1   
    33   13   58 1   
    34   14   15 ar  
    35   14   24 ar  
    36   14   58 1   
    37   15   43 1   
    38   16   17 ar  
    39   16   44 1   
    40   17   18 ar  
    41   17   20 1   
    42   18   19 ar  
    43   18   45 1   
    44   19   25 ar  
    45   19   46 1   
    46   20   21 2   
    47   20   26 1   
    48   21   22 1   
    49   21   47 1   
    50   22   48 1   
    51   23   58 2   
    52   24   49 1   
    53   25   57 1   
    54   26   27 1   
    55   27   50 1   
    56   27   51 1   
    57   29   52 1   
    58   30   53 1   
    59   31   54 1   
    60   31   55 1   
    61   32   56 1   
@<TRIPOS>SUBSTRUCTURE
     1 310         1 TEMP              0 ****  ****    0 ROOT
