@<TRIPOS>MOLECULE
311
   47    46     1     0     0
SMALL
bcc


@<TRIPOS>ATOM
      1 C13         0.2060   -0.0320   -1.0480 c3        1 311     -0.012000
      2 C18        -2.1060    2.9800   -4.2570 c2        1 311      0.223000
      3 C17        -2.0150   -1.8960   -1.3390 c2        1 311      0.098000
      4 C16        -3.2420   -1.6870   -3.3740 c2        1 311     -0.010000
      5 C15        -3.2460   -0.7380   -4.4940 c2        1 311     -0.079000
      6 C19        -1.6620   -1.2810    0.0160 c2        1 311      0.354000
      7 C20         1.7250   -0.1100   -0.7640 c3        1 311     -0.069000
      8 C11         2.0530    0.6240    0.5350 c3        1 311     -0.150000
      9 C12        -0.2970    0.2640    1.3370 c3        1 311     -0.027000
     10 C2          2.4460    0.5700   -1.9200 c3        1 311     -0.207000
     11 C3          2.1730   -1.5600   -0.6870 c3        1 311     -0.207000
     12 C4         -1.0580   -4.3200   -1.5900 c1        1 311     -0.129000
     13 C5         -3.7770   -2.9180   -3.5530 c2        1 311     -0.214000
     14 C6         -1.5040   -3.2140   -1.4900 c1        1 311     -0.191000
     15 C7         -1.8760    2.8890   -1.8160 c2        1 311     -0.131000
     16 C8         -2.8620    0.5150   -4.4220 c1        1 311     -0.009000
     17 C9         -2.4980    1.7150   -4.3590 c1        1 311     -0.210000
     18 C10         1.1870    0.1670    1.6860 c3        1 311     -0.175000
     19 C14        -1.6500    3.5530   -2.9750 c2        1 311     -0.183000
     20 N21        -2.7480   -1.2000   -2.1420 n2        1 311     -0.113000
     21 N22        -0.6370   -0.3600    0.0750 n         1 311     -0.318000
     22 O23        -2.3260   -1.6060    1.0160 o         1 311     -0.345000
     23 F24        -2.1210    3.8070   -5.3280 f         1 311     -0.085000
     24 H13        -0.0400    1.0270   -1.3610 h1        1 311      0.091500
     25 H13A       -0.0160   -0.7130   -1.9170 h1        1 311      0.091500
     26 H11         1.9050    1.7260    0.3750 hc        1 311      0.084000
     27 H11A        3.1330    0.4620    0.7870 hc        1 311      0.084000
     28 H12        -0.5820    1.3540    1.2670 h1        1 311      0.099500
     29 H12A       -0.9060   -0.2060    2.1620 h1        1 311      0.099500
     30 H1         -0.8650    5.4000   -2.1640 ha        1 311      0.056000
     31 H1A        -1.6530    6.0410   -4.4350 ha        1 311      0.019500
     32 H1B        -2.1900    6.0910   -4.0130 ha        1 311      0.019500
     33 H2          2.2010    0.0610   -2.8830 hc        1 311      0.079000
     34 H2A         3.5500    0.5190   -1.7600 hc        1 311      0.079000
     35 H2B         2.1480    1.6430   -1.9970 hc        1 311      0.079000
     36 H3          3.2690   -1.6110   -0.4790 hc        1 311      0.079000
     37 H3A         1.6330   -2.1010    0.1260 hc        1 311      0.079000
     38 H3B         1.9710   -2.0780   -1.6550 hc        1 311      0.079000
     39 H4         -0.6620   -5.3010   -1.6780 ha        1 311      0.231000
     40 H5         -4.2340   -3.2110   -4.5070 ha        1 311      0.130000
     41 H6         -3.8080   -3.6740   -2.7580 ha        1 311      0.130000
     42 H7         -2.3210    1.8820   -1.7870 ha        1 311      0.137500
     43 H8         -1.5750    3.3070   -0.8460 ha        1 311      0.137500
     44 H9         -3.6070   -1.1470   -5.4550 ha        1 311      0.154000
     45 H10         1.4450   -0.8870    1.9660 hc        1 311      0.092000
     46 H10A        1.3770    0.8110    2.5840 hc        1 311      0.092000
     47 C1         -0.8110    4.7070   -3.0180 c1        1 311     -0.031000
@<TRIPOS>BOND
     1    1    7 1   
     2    1   21 1   
     3    1   24 1   
     4    1   25 1   
     5    2   17 1   
     6    2   19 1   
     7    2   23 1   
     8    3    6 1   
     9    3   14 1   
    10    3   20 1   
    11    4    5 1   
    12    4   13 1   
    13    4   20 1   
    14    5   16 1   
    15    5   44 1   
    16    6   21 1   
    17    6   22 1   
    18    7    8 1   
    19    7   10 1   
    20    7   11 1   
    21    8   18 1   
    22    8   26 1   
    23    8   27 1   
    24    9   18 1   
    25    9   21 1   
    26    9   28 1   
    27    9   29 1   
    28   10   33 1   
    29   10   34 1   
    30   10   35 1   
    31   11   36 1   
    32   11   37 1   
    33   11   38 1   
    34   12   14 1   
    35   12   39 1   
    36   13   40 1   
    37   13   41 1   
    38   15   19 1   
    39   15   42 1   
    40   15   43 1   
    41   16   17 1   
    42   18   45 1   
    43   18   46 1   
    44   19   47 1   
    45   30   47 1   
    46   31   32 1   
@<TRIPOS>SUBSTRUCTURE
     1 311         1 TEMP              0 ****  ****    0 ROOT
