@<TRIPOS>MOLECULE
311
   47    47     1     0     0
SMALL
bcc


@<TRIPOS>ATOM
      1 C13         0.3190   -0.1450    0.5750 c3        1 311     -0.011000
      2 C18        -1.6010    2.2060   -6.7980 c2        1 311     -0.087000
      3 C17        -1.9510   -1.0610   -1.0140 c2        1 311      0.086000
      4 C16        -3.6200    0.6190   -1.3720 c2        1 311      0.046000
      5 C15        -3.0270    1.3410   -2.4450 c1        1 311     -0.138000
      6 C19        -1.2610   -1.9750   -0.0030 c2        1 311      0.345000
      7 C20         1.8570   -0.1210    0.4060 c3        1 311     -0.071000
      8 C11         2.5150   -0.9510    1.5060 c3        1 311     -0.150000
      9 C12         0.4090   -2.2920    1.7590 c3        1 311     -0.029000
     10 C2          2.3120    1.3270    0.5310 c3        1 311     -0.206500
     11 C3          2.2460   -0.6440   -0.9660 c3        1 311     -0.206500
     12 C4         -1.3830   -2.4610   -3.0210 c1        1 311      0.277000
     13 C5         -4.9250    0.8260   -1.0730 c2        1 311     -0.156000
     14 C6         -1.5320   -1.3130   -2.3930 c2        1 311     -0.527000
     15 C7         -1.9360    2.7370   -4.3880 c3        1 311     -0.055000
     16 C8         -2.5500    1.9740   -3.3430 c1        1 311     -0.150000
     17 C9         -0.1990    2.2400   -6.5680 c1        1 311     -0.105000
     18 C10         1.9280   -2.3410    1.6070 c3        1 311     -0.176000
     19 C14        -2.4670    2.4110   -5.7450 c2        1 311      0.071000
     20 N21        -2.8360   -0.2400   -0.5650 n2        1 311     -0.129000
     21 N22        -0.2430   -1.4600    0.7680 n         1 311     -0.308000
     22 O23        -1.6570   -3.1510    0.1060 o         1 311     -0.354000
     23 F24        -2.1090    1.9630   -8.0460 f         1 311     -0.140000
     24 H13         0.0560    0.4760    1.4810 h1        1 311      0.092500
     25 H13A       -0.1360    0.3450   -0.3300 h1        1 311      0.092500
     26 H11         2.3820   -0.4210    2.4870 hc        1 311      0.084000
     27 H11A        3.6160   -1.0200    1.3060 hc        1 311      0.084000
     28 H12         0.1590   -1.8690    2.7760 h1        1 311      0.103500
     29 H12A       -0.0060   -3.3380    1.7000 h1        1 311      0.103500
     30 H1         -4.2310    2.6860   -6.9400 hc        1 311      0.112333
     31 H1A        -4.4520    2.9900   -5.1550 hc        1 311      0.112333
     32 H1B        -4.2770    1.2950   -5.7790 hc        1 311      0.112333
     33 H2          1.8270    1.9540   -0.2560 hc        1 311      0.078167
     34 H2A         2.0440    1.7400    1.5320 hc        1 311      0.078167
     35 H2B         3.4190    1.3890    0.4050 hc        1 311      0.078167
     36 H3          3.3570   -0.6170   -1.0860 hc        1 311      0.078167
     37 H3A         1.7900   -0.0120   -1.7660 hc        1 311      0.078167
     38 H3B         1.9020   -1.6960   -1.1040 hc        1 311      0.078167
     39 H4         -1.3420   -0.3910   -2.9940 ha        1 311      0.217000
     40 H5         -5.5320    1.5330   -1.6520 ha        1 311      0.133500
     41 H6         -5.4360    0.3030   -0.2540 ha        1 311      0.133500
     42 H7         -2.1190    3.8380   -4.2040 hc        1 311      0.150000
     43 H8         -0.8120    2.5800   -4.3650 hc        1 311      0.150000
     44 H9          0.4600    2.1210   -7.4390 ha        1 311      0.068000
     45 H10         2.2030   -2.9410    0.7010 hc        1 311      0.091500
     46 H10A        2.3520   -2.8670    2.5020 hc        1 311      0.091500
     47 C1         -3.9320    2.3540   -5.9130 c3        1 311     -0.227000
@<TRIPOS>BOND
     1    1    7 1   
     2    1   21 1   
     3    1   24 1   
     4    1   25 1   
     5    2   17 1   
     6    2   19 1   
     7    2   23 1   
     8    3    6 1   
     9    3   14 1   
    10    3   20 1   
    11    4    5 1   
    12    4   13 1   
    13    4   20 1   
    14    5   16 1   
    15    6   21 1   
    16    6   22 1   
    17    7    8 1   
    18    7   10 1   
    19    7   11 1   
    20    8   18 1   
    21    8   26 1   
    22    8   27 1   
    23    9   18 1   
    24    9   21 1   
    25    9   28 1   
    26    9   29 1   
    27   10   33 1   
    28   10   34 1   
    29   10   35 1   
    30   11   36 1   
    31   11   37 1   
    32   11   38 1   
    33   12   14 1   
    34   13   40 1   
    35   13   41 1   
    36   14   39 1   
    37   15   16 1   
    38   15   19 1   
    39   15   42 1   
    40   15   43 1   
    41   17   44 1   
    42   18   45 1   
    43   18   46 1   
    44   19   47 1   
    45   30   47 1   
    46   31   47 1   
    47   32   47 1   
@<TRIPOS>SUBSTRUCTURE
     1 311         1 TEMP              0 ****  ****    0 ROOT
