@<TRIPOS>MOLECULE
311
   47    49     1     0     0
SMALL
bcc


@<TRIPOS>ATOM
      1 C13        -2.2590   -1.3110   -0.2280 c3        1 311      0.107000
      2 C18         5.0470    0.6360    0.7600 ca        1 311      0.115900
      3 C17        -0.8870    1.2560    0.0930 ca        1 311      0.375800
      4 C16         1.4050    1.0370   -0.1300 cp        1 311      0.457800
      5 C15         2.6770    0.4240    0.2980 cp        1 311     -0.127500
      6 C19        -2.1620    0.9350    0.8400 c         1 311      0.577600
      7 C20        -3.3660   -1.8690   -1.1550 c3        1 311     -0.073000
      8 C11        -4.5800   -2.2850   -0.3270 c3        1 311     -0.070400
      9 C12        -3.9010   -0.6730    1.4730 c3        1 311      0.087000
     10 C2         -2.8010   -3.0930   -1.8650 c3        1 311     -0.088100
     11 C3         -3.7560   -0.8330   -2.1950 c3        1 311     -0.088100
     12 C4          0.2270    2.5780   -1.5790 ca        1 311     -0.096000
     13 C5          1.4240    1.9860   -1.1800 ca        1 311     -0.225300
     14 C6         -0.9570    2.2190   -0.9340 ca        1 311     -0.210300
     15 C7          3.9570   -1.5020    1.0120 ca        1 311     -0.117000
     16 C8          2.7450   -0.9350    0.6270 ca        1 311     -0.102000
     17 C9          3.8280    1.2140    0.3690 ca        1 311     -0.148000
     18 C10        -5.0460   -1.1860    0.6010 c3        1 311     -0.097400
     19 C14         5.1240   -0.7370    1.0850 ca        1 311     -0.095300
     20 N21         0.2590    0.6690    0.4980 nb        1 311     -0.635000
     21 N22        -2.7130   -0.3250    0.7200 n         1 311     -0.455800
     22 O23        -2.6780    1.8110    1.5610 o         1 311     -0.595100
     23 F24         6.1570    1.4130    0.8210 f         1 311     -0.140900
     24 H13        -1.8240   -2.1750    0.3550 h1        1 311      0.052700
     25 H13A       -1.4480   -0.8850   -0.8810 h1        1 311      0.052700
     26 H11        -5.4140   -2.5770   -1.0160 hc        1 311      0.043700
     27 H11A       -4.3090   -3.1900    0.2800 hc        1 311      0.043700
     28 H12        -4.2500    0.2260    2.0570 h1        1 311      0.063200
     29 H12A       -3.6140   -1.4810    2.2070 h1        1 311      0.063200
     30 H1          6.6060   -1.0980    2.5820 hc        1 311      0.052033
     31 H1A         6.3870   -2.4520    1.3930 hc        1 311      0.052033
     32 H1B         7.2520   -0.9310    0.8990 hc        1 311      0.052033
     33 H2         -2.5080   -3.8770   -1.1260 hc        1 311      0.037533
     34 H2A        -3.5690   -3.5220   -2.5530 hc        1 311      0.037533
     35 H2B        -1.9020   -2.8130   -2.4640 hc        1 311      0.037533
     36 H3         -2.8720   -0.5600   -2.8210 hc        1 311      0.037533
     37 H3A        -4.5500   -1.2420   -2.8660 hc        1 311      0.037533
     38 H3B        -4.1460    0.0920   -1.7080 hc        1 311      0.037533
     39 H4          0.2160    3.3210   -2.3900 ha        1 311      0.145000
     40 H5          2.3720    2.2450   -1.6710 ha        1 311      0.151000
     41 H6         -1.9190    2.6780   -1.1990 ha        1 311      0.158000
     42 H7          4.0000   -2.5720    1.2670 ha        1 311      0.140000
     43 H8          1.8390   -1.5590    0.5880 ha        1 311      0.151000
     44 H9          3.7920    2.2890    0.1350 ha        1 311      0.151000
     45 H10        -5.4830   -0.3420    0.0070 hc        1 311      0.050700
     46 H10A       -5.8510   -1.5760    1.2760 hc        1 311      0.050700
     47 C1          6.4070   -1.3410    1.5080 c3        1 311     -0.055800
@<TRIPOS>BOND
     1    1    7 1   
     2    1   21 1   
     3    1   24 1   
     4    1   25 1   
     5    2   17 ar  
     6    2   19 ar  
     7    2   23 1   
     8    3    6 1   
     9    3   14 ar  
    10    3   20 ar  
    11    4    5 1   
    12    4   13 ar  
    13    4   20 ar  
    14    5   16 ar  
    15    5   17 ar  
    16    6   21 1   
    17    6   22 2   
    18    7    8 1   
    19    7   10 1   
    20    7   11 1   
    21    8   18 1   
    22    8   26 1   
    23    8   27 1   
    24    9   18 1   
    25    9   21 1   
    26    9   28 1   
    27    9   29 1   
    28   10   33 1   
    29   10   34 1   
    30   10   35 1   
    31   11   36 1   
    32   11   37 1   
    33   11   38 1   
    34   12   13 ar  
    35   12   14 ar  
    36   12   39 1   
    37   13   40 1   
    38   14   41 1   
    39   15   16 ar  
    40   15   19 ar  
    41   15   42 1   
    42   16   43 1   
    43   17   44 1   
    44   18   45 1   
    45   18   46 1   
    46   19   47 1   
    47   30   47 1   
    48   31   47 1   
    49   32   47 1   
@<TRIPOS>SUBSTRUCTURE
     1 311         1 TEMP              0 ****  ****    0 ROOT
