@<TRIPOS>MOLECULE
311
   47    42     1     0     0
SMALL
bcc


@<TRIPOS>ATOM
      1 C13         1.6620    3.4830   -1.2310 c3        1 311     -0.019000
      2 C18        -4.9810   -3.1730    0.6530 c1        1 311      0.080000
      3 C17        -0.2250    0.0550   -0.0410 c1        1 311     -0.043000
      4 C16        -1.6890   -1.7850    0.3240 c1        1 311     -0.001000
      5 C15        -2.7530   -2.5750   -0.0980 c1        1 311     -0.001000
      6 C19         0.2720    1.2030   -0.9440 c1        1 311      0.359000
      7 C20         3.1600    3.1220   -1.3620 c3        1 311     -0.065000
      8 C11         3.8700    3.0040   -0.0060 c3        1 311     -0.152000
      9 C12         1.8740    2.0620    0.8930 c3        1 311     -0.016000
     10 C1         -5.5690   -5.5220    1.3100 c3        1 311     -0.181000
     11 C2          3.2720    1.8110   -2.0880 c3        1 311     -0.206000
     12 C3          3.8610    4.2020   -2.1960 c3        1 311     -0.206000
     13 C4         -0.2730   -1.0170    2.1070 c1        1 311     -0.098000
     14 C5         -1.2300   -1.8860    1.6420 c1        1 311     -0.143000
     15 C6          0.2340   -0.0490    1.2800 c2        1 311     -0.138000
     16 C7         -3.3840   -4.9120    0.1530 c1        1 311     -0.114000
     17 C8         -2.4230   -3.9210   -0.1840 c1        1 311     -0.143000
     18 C9         -4.0240   -2.1930    0.3170 c1        1 311     -0.124000
     19 C10         3.0070    2.8310    0.9720 c3        1 311     -0.166000
     20 C14        -4.6520   -4.5340    0.5680 c1        1 311     -0.090000
     21 N21        -1.1860   -0.8190   -0.5050 n1        1 311     -0.115000
     22 N22         1.2360    2.1950   -0.4160 n3        1 311     -0.315000
     23 O23        -0.2080    1.3620   -2.0060 o         1 311     -0.362000
     24 F24        -6.2050   -2.7540    0.5860 f         1 311     -0.104000
     25 H13         1.2210    3.5200   -2.1050 h1        1 311      0.099000
     26 H13A        1.5360    4.2690   -0.7360 h1        1 311      0.099000
     27 H11         4.4670    2.2650   -0.0290 hc        1 311      0.084000
     28 H11A        4.3800    3.8250    0.1610 hc        1 311      0.084000
     29 H12         2.1230    1.0700    1.0530 h1        1 311      0.088500
     30 H12A        1.2500    2.3450    1.5780 h1        1 311      0.088500
     31 H1         -5.3270   -5.5450    2.2360 hc        1 311      0.091000
     32 H1A        -5.4700   -6.3860    0.9360 hc        1 311      0.091000
     33 H1B        -6.5080   -5.2310    1.2230 hc        1 311      0.091000
     34 H2          4.2240    1.5570   -2.1610 hc        1 311      0.078167
     35 H2A         2.8760    1.9040   -3.0130 hc        1 311      0.078167
     36 H2B         2.8090    1.1550   -1.6180 hc        1 311      0.078167
     37 H3          3.5720    5.1130   -1.8850 hc        1 311      0.078167
     38 H3A         4.8640    4.1110   -2.0860 hc        1 311      0.078167
     39 H3B         3.6130    4.0850   -3.1690 hc        1 311      0.078167
     40 H4          0.0680   -1.0950    3.0880 ha        1 311      0.145000
     41 H5         -1.6050   -2.5970    2.2520 ha        1 311      0.144000
     42 H6          0.9150    0.5680    1.6130 ha        1 311      0.161000
     43 H7         -3.1410   -5.8890    0.0920 ha        1 311      0.139000
     44 H8         -1.4870   -4.2000   -0.4930 ha        1 311      0.144000
     45 H9         -4.2510   -1.2540    0.3780 ha        1 311      0.166000
     46 H10         2.7060    3.7380    1.2300 hc        1 311      0.089000
     47 H10A        3.5190    2.4790    1.7250 hc        1 311      0.089000
@<TRIPOS>BOND
     1    1    7 1   
     2    1   22 1   
     3    1   25 1   
     4    1   26 1   
     5    2   18 1   
     6    2   24 1   
     7    3   15 1   
     8    3   21 1   
     9    4   14 1   
    10    5   17 1   
    11    6   22 1   
    12    6   23 1   
    13    7    8 1   
    14    7   11 1   
    15    7   12 1   
    16    8   19 1   
    17    8   27 1   
    18    8   28 1   
    19    9   19 1   
    20    9   22 1   
    21    9   29 1   
    22    9   30 1   
    23   10   20 1   
    24   10   31 1   
    25   10   32 1   
    26   10   33 1   
    27   11   34 1   
    28   11   35 1   
    29   11   36 1   
    30   12   37 1   
    31   12   38 1   
    32   12   39 1   
    33   13   15 1   
    34   13   40 1   
    35   14   41 1   
    36   15   42 1   
    37   16   20 1   
    38   16   43 1   
    39   17   44 1   
    40   18   45 1   
    41   19   46 1   
    42   19   47 1   
@<TRIPOS>SUBSTRUCTURE
     1 311         1 TEMP              0 ****  ****    0 ROOT
