@<TRIPOS>MOLECULE
313
   16    15     1     0     0
SMALL
bcc


@<TRIPOS>ATOM
      1 O3         -2.2910    1.1920    1.7870 o         1 313     -0.846300
      2 C2         -1.0320    1.1920    1.7870 c         1 313      0.927600
      3 O1         -0.4030    1.1920    2.8770 o         1 313     -0.846300
      4 C4         -0.2760    1.1920    0.4770 c3        1 313     -0.153600
      5 S5          0.0200   -0.4800   -0.0350 s6        1 313     -0.513200
      6 C7          1.7660   -0.7590   -0.1630 c3        1 313     -0.086300
      7 C6         -0.7400   -0.7580   -1.6130 c3        1 313     -0.086300
      8 H4         -0.8030    1.6520   -0.2040 h1        1 313      0.061700
      9 H4A         0.5770    1.6520    0.5930 h1        1 313      0.061700
     10 H7          2.1470   -0.8520    0.7310 h1        1 313      0.043700
     11 H7A         1.9290   -1.5750   -0.6730 h1        1 313      0.043700
     12 H7B         2.1840   -0.0020   -0.6170 h1        1 313      0.043700
     13 H6         -1.7050   -0.8510   -1.4970 h1        1 313      0.043700
     14 H6A        -0.5540   -0.0020   -2.2010 h1        1 313      0.043700
     15 H6B        -0.3800   -1.5740   -2.0080 h1        1 313      0.043700
     16 HS5        -0.4390   -1.2200    0.7580 hs        1 313      0.216800
@<TRIPOS>BOND
     1    1    2 1   
     2    2    3 1   
     3    2    4 1   
     4    4    5 1   
     5    4    8 1   
     6    4    9 1   
     7    5    6 1   
     8    5    7 1   
     9    5   16 1   
    10    6   10 1   
    11    6   11 1   
    12    6   12 1   
    13    7   13 1   
    14    7   14 1   
    15    7   15 1   
@<TRIPOS>SUBSTRUCTURE
     1 313         1 TEMP              0 ****  ****    0 ROOT
