@<TRIPOS>MOLECULE
313
   16    15     1     0     0
SMALL
bcc


@<TRIPOS>ATOM
      1 O3          1.2840    0.2310    0.9210 o         1 313     -0.847300
      2 C2          1.9610   -0.5110    0.1520 c         1 313      0.924600
      3 O1          2.3530   -1.6740    0.4590 o         1 313     -0.847300
      4 C4          2.3430    0.0380   -1.2310 c3        1 313     -0.147600
      5 S5          3.8620    0.8780   -1.1770 s6        1 313     -0.489200
      6 C7          3.7290    2.2500   -0.1110 c3        1 313     -0.084300
      7 C6          5.1230   -0.2330   -0.7120 c3        1 313     -0.084300
      8 H4          1.5370    0.7280   -1.5690 h1        1 313      0.058700
      9 H4A         2.4030   -0.8160   -1.9430 h1        1 313      0.058700
     10 H7          3.3800    3.1500   -0.6580 h1        1 313      0.060033
     11 H7A         4.7070    2.4760    0.3640 h1        1 313      0.060033
     12 H7B         2.9840    2.0080    0.6860 h1        1 313      0.060033
     13 H6          4.6790   -1.0130   -0.0450 h1        1 313      0.060033
     14 H6A         5.5610   -0.7360   -1.5980 h1        1 313      0.060033
     15 H6B         5.9310    0.2950   -0.1630 h1        1 313      0.060033
     16 HS5         4.0860    1.2990   -2.4010 hs        1 313      0.097800
@<TRIPOS>BOND
     1    1    2 1   
     2    2    3 1   
     3    2    4 1   
     4    4    5 1   
     5    4    8 1   
     6    4    9 1   
     7    5    6 1   
     8    5    7 1   
     9    5   16 1   
    10    6   10 1   
    11    6   11 1   
    12    6   12 1   
    13    7   13 1   
    14    7   14 1   
    15    7   15 1   
@<TRIPOS>SUBSTRUCTURE
     1 313         1 TEMP              0 ****  ****    0 ROOT
