@<TRIPOS>MOLECULE
313
   16    15     1     0     0
SMALL
bcc


@<TRIPOS>ATOM
      1 O3          1.1660    0.0280    0.6660 o         1 313     -0.847300
      2 C2          2.0810   -0.6740    0.1470 c         1 313      0.924600
      3 O1          2.6260   -1.6600    0.7220 o         1 313     -0.847300
      4 C4          2.5720   -0.2970   -1.2600 c3        1 313     -0.147600
      5 S5          3.8840    0.8390   -1.1850 s6        1 313     -0.489200
      6 C7          3.3350    2.3110   -0.4310 c3        1 313     -0.084300
      7 C6          5.2360    0.1100   -0.3610 c3        1 313     -0.084300
      8 H4          1.7180    0.1430   -1.8230 h1        1 313      0.058700
      9 H4A         2.9000   -1.2260   -1.7780 h1        1 313      0.058700
     10 H7          2.9200    3.0150   -1.1820 h1        1 313      0.060033
     11 H7A         4.1670    2.8120    0.1070 h1        1 313      0.060033
     12 H7B         2.5290    2.0560    0.3000 h1        1 313      0.060033
     13 H6          4.8420   -0.6230    0.3860 h1        1 313      0.060033
     14 H6A         5.8930   -0.4320   -1.0720 h1        1 313      0.060033
     15 H6B         5.8370    0.8790    0.1680 h1        1 313      0.060033
     16 HS5         4.2180    1.0880   -2.4300 hs        1 313      0.097800
@<TRIPOS>BOND
     1    1    2 1   
     2    2    3 1   
     3    2    4 1   
     4    4    5 1   
     5    4    8 1   
     6    4    9 1   
     7    5    6 1   
     8    5    7 1   
     9    5   16 1   
    10    6   10 1   
    11    6   11 1   
    12    6   12 1   
    13    7   13 1   
    14    7   14 1   
    15    7   15 1   
@<TRIPOS>SUBSTRUCTURE
     1 313         1 TEMP              0 ****  ****    0 ROOT
