@<TRIPOS>MOLECULE
313
   16    15     1     0     0
SMALL
bcc


@<TRIPOS>ATOM
      1 O3         -1.8460   -0.8670   -0.0010 o         1 313     -0.847300
      2 C2         -1.0690   -0.1490   -0.6950 c         1 313      0.924600
      3 O1         -0.8740   -0.3130   -1.9330 o         1 313     -0.847300
      4 C4         -0.3060    0.9820    0.0130 c3        1 313     -0.147600
      5 S5          1.2220    0.4230    0.6220 s6        1 313     -0.489200
      6 C7          0.9530   -0.8230    1.8110 c3        1 313     -0.084300
      7 C6          2.2200   -0.1010   -0.7070 c3        1 313     -0.084300
      8 H4         -0.1480    1.8080   -0.7160 h1        1 313      0.058700
      9 H4A        -0.9360    1.3590    0.8500 h1        1 313      0.058700
     10 H7          1.7970   -1.5430    1.8250 h1        1 313      0.060033
     11 H7A         0.8350   -0.3900    2.8250 h1        1 313      0.060033
     12 H7B         0.0130   -1.3670    1.5460 h1        1 313      0.060033
     13 H6          1.5550   -0.4890   -1.5170 h1        1 313      0.060033
     14 H6A         2.8180    0.7400   -1.1150 h1        1 313      0.060033
     15 H6B         2.9100   -0.9090   -0.3870 h1        1 313      0.060033
     16 HS5         1.7810    1.4610    1.2020 hs        1 313      0.097800
@<TRIPOS>BOND
     1    1    2 1   
     2    2    3 1   
     3    2    4 1   
     4    4    5 1   
     5    4    8 1   
     6    4    9 1   
     7    5    6 1   
     8    5    7 1   
     9    5   16 1   
    10    6   10 1   
    11    6   11 1   
    12    6   12 1   
    13    7   13 1   
    14    7   14 1   
    15    7   15 1   
@<TRIPOS>SUBSTRUCTURE
     1 313         1 TEMP              0 ****  ****    0 ROOT
