@<TRIPOS>MOLECULE
314
   89    87     1     0     0
SMALL
bcc


@<TRIPOS>ATOM
      1 F1         -3.1340    4.1560   -5.0930 f         1 314     -0.101000
      2 F2          1.0340    6.3970   -5.1220 f         1 314     -0.101000
      3 C1         -2.1960   -3.3780   -1.7420 c1        1 314     -0.087000
      4 C2         -1.6530   -2.6990   -0.6550 c1        1 314     -0.108000
      5 C3         -1.0760   -1.4220   -0.8390 c1        1 314     -0.084000
      6 C4         -1.0490   -0.8370   -2.1240 c1        1 314     -0.115000
      7 C5         -1.5950   -1.5230   -3.2150 c1        1 314     -0.072000
      8 C6         -2.1690   -2.7910   -3.0320 c1        1 314     -0.076000
      9 C7         -1.6320   -3.3800    0.7710 c2        1 314      0.345000
     10 N1         -2.1670   -4.6860    0.9420 n         1 314     -0.332000
     11 O1         -1.1930   -2.7740    1.7270 o         1 314     -0.355000
     12 C8         -3.1000   -4.9330    1.9720 c3        1 314     -0.024000
     13 C9         -1.6370   -5.7890    0.1690 c3        1 314     -0.024000
     14 C10        -1.1070   -6.8490    1.1040 c3        1 314     -0.180500
     15 C11        -1.3530   -8.2510    0.4910 c3        1 314     -0.211500
     16 C12        -4.5000   -5.2060    1.3490 c3        1 314     -0.180500
     17 C13        -5.5280   -5.5770    2.5040 c3        1 314     -0.211500
     18 C14        -2.8310   -3.6220   -4.0950 c3        1 314     -0.182000
     19 C15        -0.2670    0.5130   -2.3560 c2        1 314      0.353000
     20 O2         -0.2400    1.0300   -3.4820 o         1 314     -0.382000
     21 N2          0.4160    1.1320   -1.2700 n         1 314     -0.335000
     22 C16         1.0250    2.3690   -1.4430 c3        1 314     -0.002000
     23 C17         2.1210    2.5640   -0.3450 c3        1 314      0.007000
     24 O3          2.9120    3.6860   -0.6630 oh        1 314     -0.324000
     25 C18        -0.0250    3.4750   -1.3230 c3        1 314     -0.139000
     26 C19        -0.3450    4.0440   -2.7330 ca        1 314     -0.011000
     27 C20        -1.6090    3.8150   -3.3050 ca        1 314     -0.178000
     28 C21        -1.9770    4.4820   -4.4680 ca        1 314      0.120500
     29 C22        -1.0950    5.3760   -5.0670 ca        1 314     -0.211000
     30 C23         0.1560    5.6020   -4.5020 ca        1 314      0.120500
     31 C24         0.5270    4.9290   -3.3280 ca        1 314     -0.178000
     32 C25         2.9650    1.3760   -0.2850 c3        1 314     -0.050000
     33 C26         4.3580    1.7560    0.4680 c3        1 314     -0.173000
     34 C27         3.6860    2.2500    1.8670 c3        1 314     -0.092000
     35 C28         2.9430    1.1940    2.5400 c3        1 314     -0.157000
     36 C29         2.6190    0.1570    1.6590 c3        1 314     -0.071000
     37 N3          2.2300    0.3160    0.3780 n3        1 314     -0.316000
     38 C30         2.7390    3.4190    1.5830 c3        1 314     -0.125000
     39 C31         2.7220    4.3720    2.7900 c2        1 314     -0.069000
     40 C32         1.6950    5.3000    2.9280 c2        1 314     -0.128000
     41 C33         1.6790    6.1750    4.0270 c1        1 314     -0.128000
     42 C34         2.6880    6.1140    4.9770 c1        1 314     -0.131000
     43 C35         3.7230    5.1790    4.8390 c1        1 314     -0.131000
     44 C36         3.7380    4.3100    3.7470 c1        1 314     -0.131000
     45 H1         -2.6030   -4.2770   -1.6140 ha        1 314      0.145000
     46 H3         -0.6970   -0.9470   -0.0800 ha        1 314      0.154000
     47 H5         -1.5780   -1.1210   -4.1010 ha        1 314      0.156000
     48 H8         -3.1530   -4.1400    2.5690 h1        1 314      0.095750
     49 H8A        -2.8180   -5.7080    2.4850 h1        1 314      0.095750
     50 H9         -2.3490   -6.1700   -0.3880 h1        1 314      0.095750
     51 H9A        -0.9160   -5.4700   -0.4000 h1        1 314      0.095750
     52 H10        -0.1240   -6.7130    1.2390 hc        1 314      0.085500
     53 H10A       -1.5610   -6.7850    1.9550 hc        1 314      0.085500
     54 H11        -0.6410   -8.4570   -0.1490 hc        1 314      0.076000
     55 H11A       -2.2440   -8.2610    0.0180 hc        1 314      0.076000
     56 H11B       -1.3530   -8.9300    1.2130 hc        1 314      0.076000
     57 H12        -4.4350   -5.9630    0.7050 hc        1 314      0.085500
     58 H12A       -4.8140   -4.3960    0.8750 hc        1 314      0.085500
     59 H13        -5.1360   -6.2860    3.0810 hc        1 314      0.076000
     60 H13A       -5.7160   -4.7640    3.0570 hc        1 314      0.076000
     61 H13B       -6.3880   -5.9130    2.0960 hc        1 314      0.076000
     62 H14        -3.1810   -3.0360   -4.7960 hc        1 314      0.089333
     63 H14A       -3.5630   -4.1300   -3.7000 hc        1 314      0.089333
     64 H14B       -2.1720   -4.2430   -4.4830 hc        1 314      0.089333
     65 HN2         0.4220    0.7390   -0.4600 hn        1 314      0.227000
     66 H16         1.4510    2.4080   -2.3520 h1        1 314      0.121000
     67 H17         1.6890    2.7040    0.5280 h1        1 314      0.123000
     68 HO3         3.1180    3.6690   -1.5250 ho        1 314      0.200000
     69 H18        -0.8380    3.1090   -0.9300 hc        1 314      0.108500
     70 H18A        0.3230    4.1990   -0.7470 hc        1 314      0.108500
     71 H20        -2.2730    3.2460   -2.8280 ha        1 314      0.151500
     72 H22        -1.3300    5.8000   -5.9300 ha        1 314      0.164000
     73 H24         1.3820    5.1070   -2.9210 ha        1 314      0.151500
     74 H25         3.1720    1.0880   -1.2090 h1        1 314      0.104000
     75 H26         4.8330    2.4900    0.0110 hc        1 314      0.088500
     76 H26A        4.9310    0.9650    0.5970 hc        1 314      0.088500
     77 H27         4.4120    2.5660    2.4750 hc        1 314      0.085000
     78 H28         3.4990    0.8260    3.2930 hc        1 314      0.092000
     79 H28A        2.1150    1.5700    2.9070 hc        1 314      0.092000
     80 H29         1.9130   -0.3480    2.0900 h1        1 314      0.069000
     81 H29A        3.4010   -0.4220    1.6300 h1        1 314      0.069000
     82 HN3         2.3520   -0.4630   -0.0730 hn        1 314      0.168000
     83 H30         1.8270    3.0740    1.4250 hc        1 314      0.097500
     84 H30A        3.0450    3.9000    0.7970 hc        1 314      0.097500
     85 H32         0.9820    5.3440    2.2570 ha        1 314      0.131000
     86 H33         0.9600    6.8240    4.1220 ha        1 314      0.131000
     87 H34         2.6770    6.7330    5.7550 ha        1 314      0.130500
     88 H35         4.4360    5.1350    5.5080 ha        1 314      0.130500
     89 H36         4.4450    3.6720    3.6530 ha        1 314      0.130000
@<TRIPOS>BOND
     1    1   28 1   
     2    2   30 1   
     3    3    8 1   
     4    3   45 1   
     5    4    5 1   
     6    4    9 1   
     7    5   46 1   
     8    6    7 1   
     9    6   19 1   
    10    7   47 1   
    11    8   18 1   
    12    9   10 1   
    13    9   11 1   
    14   10   12 1   
    15   10   13 1   
    16   12   16 1   
    17   12   48 1   
    18   12   49 1   
    19   13   14 1   
    20   13   50 1   
    21   13   51 1   
    22   14   15 1   
    23   14   52 1   
    24   14   53 1   
    25   15   54 1   
    26   15   55 1   
    27   15   56 1   
    28   16   17 1   
    29   16   57 1   
    30   16   58 1   
    31   17   59 1   
    32   17   60 1   
    33   17   61 1   
    34   18   62 1   
    35   18   63 1   
    36   18   64 1   
    37   19   20 1   
    38   19   21 1   
    39   21   22 1   
    40   21   65 1   
    41   22   23 1   
    42   22   25 1   
    43   22   66 1   
    44   23   24 1   
    45   23   32 1   
    46   23   67 1   
    47   24   68 1   
    48   25   26 1   
    49   25   69 1   
    50   25   70 1   
    51   26   27 1   
    52   26   31 1   
    53   27   28 1   
    54   27   71 1   
    55   28   29 1   
    56   29   30 1   
    57   29   72 1   
    58   30   31 1   
    59   31   73 1   
    60   32   33 1   
    61   32   37 1   
    62   32   74 1   
    63   33   34 1   
    64   33   75 1   
    65   33   76 1   
    66   34   35 1   
    67   34   38 1   
    68   34   77 1   
    69   35   36 1   
    70   35   78 1   
    71   35   79 1   
    72   36   37 1   
    73   36   80 1   
    74   36   81 1   
    75   37   82 1   
    76   38   39 1   
    77   38   83 1   
    78   38   84 1   
    79   39   40 1   
    80   39   44 1   
    81   40   41 1   
    82   40   85 1   
    83   41   86 1   
    84   42   43 1   
    85   42   87 1   
    86   43   88 1   
    87   44   89 1   
@<TRIPOS>SUBSTRUCTURE
     1 314         1 TEMP              0 ****  ****    0 ROOT
