@<TRIPOS>MOLECULE
314
   91    87     1     0     0
SMALL
bcc


@<TRIPOS>ATOM
      1 F1          3.0950   -2.2530    2.4920 f         1 314     -0.104000
      2 F2          6.3490   -3.2640   -0.5360 f         1 314     -0.025000
      3 C1         -4.9830   -4.3110    4.5720 c2        1 314     -0.031000
      4 C2         -4.2140   -4.9860    3.6960 c2        1 314     -0.178000
      5 C3         -2.9550   -4.4640    3.1800 c2        1 314     -0.144000
      6 C4         -1.7240   -4.9180    3.4770 c2        1 314     -0.068000
      7 C5         -1.3710   -5.9710    4.4130 c2        1 314     -0.171000
      8 C6         -1.8690   -6.1180    5.6130 c1        1 314     -0.117000
      9 N1         -3.8360   -6.9580    2.1350 n4        1 314     -0.156000
     10 O1         -5.7310   -6.8530    3.4870 o         1 314     -0.222000
     11 C8         -4.4140   -5.3290   -0.7230 cu        1 314     -0.229500
     12 C9         -3.8260   -8.3920    1.9690 c1        1 314      0.132000
     13 C10        -4.6140   -9.2920    2.8000 c3        1 314     -0.287000
     14 C11        -4.1880  -10.7280    2.5870 c3        1 314     -0.202000
     15 C12        -3.1020   -5.3410   -0.5530 cu        1 314     -0.229500
     16 C13        -3.6530   -6.3270   -1.5260 cx        1 314     -0.157000
     17 C14        -2.3030   -6.2880    6.8230 c2        1 314     -0.148000
     18 N2          0.4870   -3.8260    3.3540 n         1 314     -0.397000
     19 C16         7.1030    0.2250    1.0510 cx        1 314     -0.245000
     20 C17         8.4650    0.8560    1.2280 cx        1 314     -0.010000
     21 O3          8.7730    2.1200    0.7310 oh        1 314     -0.316000
     22 C19         4.7370    0.1410    0.1690 c3        1 314      0.031000
     23 C20         4.0860   -0.2840    1.4910 c2        1 314     -0.212000
     24 C21         3.7170   -1.5980    1.5000 c2        1 314      0.049000
     25 C22         3.9910   -2.2480    0.1670 cx        1 314     -0.133000
     26 C23         5.3900   -2.4020   -0.3220 cu        1 314      0.071000
     27 C24         4.8970   -1.1780   -0.4630 cu        1 314     -0.165000
     28 C25         8.3010   -0.3050    0.2610 cx        1 314     -0.106000
     29 C26        11.5430    3.7600    0.6420 c2        1 314     -0.159500
     30 C27        12.7790    3.5660    0.9540 c1        1 314      0.002000
     31 C28        13.4660   -1.4620    1.9560 c1        1 314     -0.228500
     32 C29        12.5110   -1.2480    1.2680 c1        1 314     -0.228500
     33 N3          8.9300   -1.5570    0.4810 n3        1 314     -0.322000
     34 C30        14.0500    3.4000    1.3080 c2        1 314     -0.195500
     35 C31        14.9820    2.6100    0.5980 c2        1 314      0.157500
     36 C32        14.6720    1.8410   -0.5190 c2        1 314     -0.278000
     37 C33        15.5550    1.0710   -1.2530 c2        1 314      0.157500
     38 C34        16.9600    0.9170   -1.1210 c2        1 314     -0.195500
     39 C35        17.7700    1.5800   -0.3130 c1        1 314      0.002000
     40 C36        18.6410    2.1880    0.4240 c2        1 314     -0.159500
     41 H1         -4.6730   -3.3340    4.9760 ha        1 314      0.162000
     42 H3         -3.0660   -3.6280    2.4600 ha        1 314      0.173000
     43 H5         -0.5640   -6.6530    4.0710 ha        1 314      0.165000
     44 H8         -4.0840   -6.5670    1.1930 hn        1 314      0.303000
     45 H8A        -5.3830   -4.9000   -0.5670 ha        1 314      0.210500
     46 H9         -1.6370   -9.1430    2.7080 ha        1 314      0.004500
     47 H9A        -1.7480   -8.6380    3.1490 ha        1 314      0.004500
     48 H10        -5.7080   -9.1760    2.5080 hc        1 314      0.167000
     49 H10A       -4.5830   -9.0320    3.8990 hc        1 314      0.167000
     50 H11        -4.2510  -11.0010    1.5050 hc        1 314      0.105667
     51 H11A       -3.1370  -10.8820    2.9330 hc        1 314      0.105667
     52 H11B       -4.8600  -11.4050    3.1690 hc        1 314      0.105667
     53 H12        -5.1750   -8.6550    0.0630 ha        1 314      0.004500
     54 H12A       -4.8460   -9.2130   -0.1420 ha        1 314      0.004500
     55 H13        -3.7010   -7.4020   -1.2630 hc        1 314      0.108000
     56 H13A       -3.5090   -6.1860   -2.6130 hc        1 314      0.108000
     57 H13B       -2.1950   -4.9390   -0.1360 ha        1 314      0.210500
     58 H14        -1.8280   -5.7970    7.6890 ha        1 314      0.161500
     59 H14A       -3.1620   -6.9340    7.0650 ha        1 314      0.161500
     60 H14B       -5.9540   -4.6980    4.9240 ha        1 314      0.162000
     61 HN2         0.5060   -3.8000    4.3420 hn        1 314      0.247500
     62 H16         1.2520   -3.4450    2.8460 hn        1 314      0.247500
     63 H17         9.0090    0.7380    2.1880 h1        1 314      0.155000
     64 HO3         8.1890    2.3030   -0.0170 ho        1 314      0.213000
     65 H18         5.7560    1.8800    0.9160 hc        1 314      0.095500
     66 H18A        6.3540    1.2680   -0.6830 hc        1 314      0.095500
     67 H20         3.9480    0.4460    2.2880 ha        1 314      0.167000
     68 H22         3.1470   -2.7740   -0.3020 hc        1 314      0.158000
     69 H24         3.9950    0.7680   -0.4050 hc        1 314      0.134000
     70 H25         8.3150   -0.0510   -0.8260 h1        1 314      0.135000
     71 H26        11.2160    4.5990   -0.0010 ha        1 314      0.201250
     72 H26A       10.7200    3.1000    0.9920 ha        1 314      0.201250
     73 H27        11.1880    1.2620   -0.4480 ha        1 314      0.004500
     74 H28        10.6160    0.9100   -0.3440 ha        1 314      0.004500
     75 H28A       14.3030   -1.6700    2.5740 ha        1 314      0.227500
     76 H29         8.9200   -1.8180    1.4470 hn        1 314      0.162500
     77 H29A       11.6510   -1.0780    0.6640 ha        1 314      0.227500
     78 HN3         8.4940   -2.2760   -0.0670 hn        1 314      0.162500
     79 H30        18.9260    1.8280    1.4300 ha        1 314      0.201250
     80 H30A       14.4160    3.9160    2.2210 ha        1 314      0.185000
     81 H32        13.6100    1.8230   -0.8440 ha        1 314      0.169000
     82 H33        15.1070    0.4740   -2.0810 ha        1 314      0.161000
     83 H34        17.4210    0.1560   -1.7910 ha        1 314      0.185000
     84 H35        19.1670    3.1020    0.0910 ha        1 314      0.201250
     85 H36        16.0230    2.6120    0.9860 ha        1 314      0.161000
     86 H111       -2.8400   -6.6970    2.2920 hn        1 314      0.303000
     87 H221        6.7280   -0.3770    1.9050 hc        1 314      0.135000
     88 C18         6.0090    0.9490    0.3380 c3        1 314     -0.119000
     89 C15        -0.5710   -4.3550    2.6830 c2        1 314      0.332000
     90 C7         -4.6920   -6.2770    3.1710 c2        1 314      0.258000
     91 O2         -0.6140   -4.3990    1.4330 o         1 314     -0.388000
@<TRIPOS>BOND
     1    1   24 1   
     2    2   26 1   
     3    3    4 1   
     4    3   41 1   
     5    3   60 1   
     6    4    5 1   
     7    4   90 1   
     8    5    6 1   
     9    5   42 1   
    10    6    7 1   
    11    6   89 1   
    12    7    8 1   
    13    7   43 1   
    14    8   17 1   
    15    9   12 1   
    16    9   44 1   
    17    9   86 1   
    18    9   90 1   
    19   10   90 1   
    20   11   15 1   
    21   11   16 1   
    22   11   45 1   
    23   12   13 1   
    24   13   14 1   
    25   13   48 1   
    26   13   49 1   
    27   14   50 1   
    28   14   51 1   
    29   14   52 1   
    30   15   16 1   
    31   15   57 1   
    32   16   55 1   
    33   16   56 1   
    34   17   58 1   
    35   17   59 1   
    36   18   61 1   
    37   18   62 1   
    38   18   89 1   
    39   19   20 1   
    40   19   28 1   
    41   19   87 1   
    42   19   88 1   
    43   20   21 1   
    44   20   28 1   
    45   20   63 1   
    46   21   64 1   
    47   22   23 1   
    48   22   27 1   
    49   22   69 1   
    50   22   88 1   
    51   23   24 1   
    52   23   67 1   
    53   24   25 1   
    54   25   26 1   
    55   25   27 1   
    56   25   68 1   
    57   26   27 1   
    58   28   33 1   
    59   28   70 1   
    60   29   30 1   
    61   29   71 1   
    62   29   72 1   
    63   30   34 1   
    64   31   32 1   
    65   31   75 1   
    66   32   77 1   
    67   33   76 1   
    68   33   78 1   
    69   34   35 1   
    70   34   80 1   
    71   35   36 1   
    72   35   85 1   
    73   36   37 1   
    74   36   81 1   
    75   37   38 1   
    76   37   82 1   
    77   38   39 1   
    78   38   83 1   
    79   39   40 1   
    80   40   79 1   
    81   40   84 1   
    82   46   47 1   
    83   53   54 1   
    84   65   88 1   
    85   66   88 1   
    86   73   74 1   
    87   89   91 1   
@<TRIPOS>SUBSTRUCTURE
     1 314         1 TEMP              0 ****  ****    0 ROOT
