@<TRIPOS>MOLECULE
314
   89    92     1     0     0
SMALL
bcc


@<TRIPOS>ATOM
      1 F1         -1.8550   -5.1770   -2.6990 f         1 314     -0.135400
      2 F2         -0.5380   -5.0800    1.8790 f         1 314     -0.135400
      3 C1         -4.8420    1.8920   -2.0020 ca        1 314     -0.079000
      4 C2         -4.9070    1.0160   -0.9160 ca        1 314     -0.126600
      5 C3         -3.7370    0.5090   -0.3450 ca        1 314     -0.060000
      6 C4         -2.4980    0.8870   -0.8710 ca        1 314     -0.138600
      7 C5         -2.4280    1.7710   -1.9510 ca        1 314     -0.098000
      8 C6         -3.6000    2.2790   -2.5200 ca        1 314     -0.083300
      9 N1         -6.6940    1.0290    0.8080 n         1 314     -0.470800
     10 O1         -6.9410   -0.2080   -1.1050 o         1 314     -0.596100
     11 C8         -7.9930    0.6210    1.2990 c3        1 314      0.090000
     12 C9         -5.9790    2.0150    1.5800 c3        1 314      0.090000
     13 C10        -6.3580    3.4680    1.2800 c3        1 314     -0.100900
     14 C11        -5.5740    4.4010    2.1650 c3        1 314     -0.093100
     15 C12        -7.9470   -0.4470    2.3940 c3        1 314     -0.100900
     16 C13        -9.3440   -0.7800    2.8490 c3        1 314     -0.093100
     17 C14        -3.5340    3.2260   -3.6570 c3        1 314     -0.056800
     18 N2         -0.2710   -0.1170   -1.0630 n         1 314     -0.556900
     19 C16         1.0100   -0.5680   -0.5700 c3        1 314      0.081700
     20 C17         2.0980    0.5260   -0.7730 c3        1 314      0.115100
     21 O3          2.2430    0.8440   -2.1470 oh        1 314     -0.598800
     22 C19         0.5110   -3.0070   -0.9470 ca        1 314     -0.022300
     23 C20        -0.2520   -3.5640   -1.9760 ca        1 314     -0.176500
     24 C21        -1.1170   -4.6380   -1.6990 ca        1 314      0.154900
     25 C22        -1.2260   -5.1600   -0.4010 ca        1 314     -0.208000
     26 C23        -0.4490   -4.5870    0.6200 ca        1 314      0.154900
     27 C24         0.4190   -3.5150    0.3520 ca        1 314     -0.176500
     28 C25         3.4770    0.1640   -0.1690 c3        1 314      0.137500
     29 C26         4.3890    1.3960   -0.3060 c3        1 314     -0.111400
     30 C27         5.7650    1.1120    0.2760 c3        1 314     -0.059700
     31 C28         5.6350    0.6360    1.7150 c3        1 314     -0.113400
     32 C29         4.6820   -0.5550    1.7990 c3        1 314      0.153800
     33 N3          3.3800   -0.3580    1.1900 n3        1 314     -0.801200
     34 C30         6.6400    2.3570    0.1810 c3        1 314     -0.034100
     35 C31         8.0790    2.0610    0.4220 ca        1 314     -0.078300
     36 C32         8.8230    1.3610   -0.5360 ca        1 314     -0.128500
     37 C33        10.1750    1.0960   -0.3230 ca        1 314     -0.127500
     38 C34        10.7960    1.5280    0.8490 ca        1 314     -0.132000
     39 C35        10.0620    2.2270    1.8060 ca        1 314     -0.127500
     40 C36         8.7090    2.4920    1.5950 ca        1 314     -0.128500
     41 H1         -5.7710    2.2710   -2.4570 ha        1 314      0.148000
     42 H3         -3.7790   -0.1800    0.5130 ha        1 314      0.163000
     43 H5         -1.4520    2.0850   -2.3550 ha        1 314      0.140000
     44 H8         -8.5210    1.5320    1.7040 h1        1 314      0.057950
     45 H8A        -8.6000    0.2210    0.4360 h1        1 314      0.057950
     46 H9         -6.1790    1.8110    2.6730 h1        1 314      0.057950
     47 H9A        -4.8710    1.8910    1.4110 h1        1 314      0.057950
     48 H10        -6.1480    3.7000    0.2030 hc        1 314      0.046200
     49 H10A       -7.4570    3.6200    1.4460 hc        1 314      0.046200
     50 H11        -5.7910    4.2010    3.2430 hc        1 314      0.036033
     51 H11A       -4.4770    4.2770    2.0000 hc        1 314      0.036033
     52 H11B       -5.8470    5.4610    1.9430 hc        1 314      0.036033
     53 H12        -7.4460   -1.3700    2.0010 hc        1 314      0.046200
     54 H12A       -7.3420   -0.0830    3.2650 hc        1 314      0.046200
     55 H13        -9.9550   -1.1700    1.9980 hc        1 314      0.036033
     56 H13A       -9.3130   -1.5610    3.6470 hc        1 314      0.036033
     57 H13B       -9.8540    0.1240    3.2610 hc        1 314      0.036033
     58 H14        -3.6130    4.2780   -3.2820 hc        1 314      0.048700
     59 H14A       -2.5680    3.1240   -4.2110 hc        1 314      0.048700
     60 H14B       -4.3730    3.0460   -4.3730 hc        1 314      0.048700
     61 HN2        -0.3390    0.0540   -2.0380 hn        1 314      0.315500
     62 H16         0.9010   -0.7510    0.5420 h1        1 314      0.112700
     63 H17         1.7360    1.4900   -0.3110 h1        1 314      0.084700
     64 HO3         2.6630    0.0900   -2.5790 ho        1 314      0.399000
     65 H18         1.5470   -1.7430   -2.3430 hc        1 314      0.060200
     66 H18A        2.4610   -2.1550   -0.8290 hc        1 314      0.060200
     67 H20        -0.1890   -3.1720   -3.0010 ha        1 314      0.156000
     68 H22        -1.9040   -5.9980   -0.1880 ha        1 314      0.165000
     69 H24         1.0160   -3.0790    1.1660 ha        1 314      0.156000
     70 H25         3.9320   -0.6620   -0.7950 h1        1 314      0.055700
     71 H26         4.4720    1.6600   -1.3920 hc        1 314      0.053700
     72 H26A        3.9290    2.2720    0.2210 hc        1 314      0.053700
     73 H27         6.2470    0.2920   -0.3280 hc        1 314      0.053700
     74 H28         6.6410    0.3350    2.1050 hc        1 314      0.051200
     75 H28A        5.2580    1.4730    2.3580 hc        1 314      0.051200
     76 H29         5.1610   -1.4390    1.2890 h1        1 314      0.055200
     77 H29A        4.5190   -0.8260    2.8790 h1        1 314      0.055200
     78 HN3         2.8270    0.2670    1.7510 hn        1 314      0.358800
     79 H30         6.5280    2.8000   -0.8460 hc        1 314      0.050700
     80 H30A        6.2740    3.1230    0.9160 hc        1 314      0.050700
     81 H32         8.3360    1.0230   -1.4620 ha        1 314      0.130500
     82 H33        10.7520    0.5470   -1.0810 ha        1 314      0.131000
     83 H34        11.8630    1.3200    1.0160 ha        1 314      0.132000
     84 H35        10.5490    2.5700    2.7310 ha        1 314      0.131000
     85 H36         8.1340    3.0440    2.3540 ha        1 314      0.130500
     86 C18         1.4480   -1.8860   -1.2340 c3        1 314     -0.051100
     87 C15        -1.2650    0.3470   -0.2240 c         1 314      0.674700
     88 C7         -6.2450    0.5700   -0.4210 c         1 314      0.671700
     89 O2         -1.1570    0.2840    1.0180 o         1 314     -0.607100
@<TRIPOS>BOND
     1    1   24 1   
     2    2   26 1   
     3    3    4 ar  
     4    3    8 ar  
     5    3   41 1   
     6    4    5 ar  
     7    4   88 1   
     8    5    6 ar  
     9    5   42 1   
    10    6    7 ar  
    11    6   87 1   
    12    7    8 ar  
    13    7   43 1   
    14    8   17 1   
    15    9   11 1   
    16    9   12 1   
    17    9   88 1   
    18   10   88 2   
    19   11   15 1   
    20   11   44 1   
    21   11   45 1   
    22   12   13 1   
    23   12   46 1   
    24   12   47 1   
    25   13   14 1   
    26   13   48 1   
    27   13   49 1   
    28   14   50 1   
    29   14   51 1   
    30   14   52 1   
    31   15   16 1   
    32   15   53 1   
    33   15   54 1   
    34   16   55 1   
    35   16   56 1   
    36   16   57 1   
    37   17   58 1   
    38   17   59 1   
    39   17   60 1   
    40   18   19 1   
    41   18   61 1   
    42   18   87 1   
    43   19   20 1   
    44   19   62 1   
    45   19   86 1   
    46   20   21 1   
    47   20   28 1   
    48   20   63 1   
    49   21   64 1   
    50   22   23 ar  
    51   22   27 ar  
    52   22   86 1   
    53   23   24 ar  
    54   23   67 1   
    55   24   25 ar  
    56   25   26 ar  
    57   25   68 1   
    58   26   27 ar  
    59   27   69 1   
    60   28   29 1   
    61   28   33 1   
    62   28   70 1   
    63   29   30 1   
    64   29   71 1   
    65   29   72 1   
    66   30   31 1   
    67   30   34 1   
    68   30   73 1   
    69   31   32 1   
    70   31   74 1   
    71   31   75 1   
    72   32   33 1   
    73   32   76 1   
    74   32   77 1   
    75   33   78 1   
    76   34   35 1   
    77   34   79 1   
    78   34   80 1   
    79   35   36 ar  
    80   35   40 ar  
    81   36   37 ar  
    82   36   81 1   
    83   37   38 ar  
    84   37   82 1   
    85   38   39 ar  
    86   38   83 1   
    87   39   40 ar  
    88   39   84 1   
    89   40   85 1   
    90   65   86 1   
    91   66   86 1   
    92   87   89 2   
@<TRIPOS>SUBSTRUCTURE
     1 314         1 TEMP              0 ****  ****    0 ROOT
