@<TRIPOS>MOLECULE
314
   91    88     1     0     0
SMALL
bcc


@<TRIPOS>ATOM
      1 F1          2.1090    4.4840    2.3740 f         1 314     -0.087000
      2 F2          1.1270    0.3880    0.1400 f         1 314     -0.087000
      3 C1         -0.3520   -5.0950    2.7130 c3        1 314     -0.134000
      4 C2          0.1030   -6.4520    2.2450 c2        1 314     -0.227000
      5 C3          1.4530   -6.5850    2.3340 c2        1 314      0.051000
      6 C4          2.0790   -5.3530    2.9330 c3        1 314     -0.159000
      7 C5          0.9260   -4.3920    3.0990 c2        1 314      0.228000
      8 C6          1.0010   -3.1530    3.5330 c1        1 314     -0.590000
      9 N1         -2.0130   -7.7660    2.0380 n7        1 314     -0.236000
     10 O1         -0.1840   -8.0540    0.5860 os        1 314     -0.132000
     11 C8         -4.5080   -8.7660   -0.0310 c3        1 314     -0.286000
     12 C9         -2.7000   -7.2500    3.2100 c3        1 314     -0.062000
     13 C10        -3.6840   -6.1200    2.9080 c3        1 314     -0.181000
     14 C11        -4.3830   -5.7090    4.1800 c3        1 314     -0.224000
     15 C12        -0.3790  -10.2490   -0.2450 c2        1 314     -0.121000
     16 C13        -0.8930   -9.0210   -0.1650 c2        1 314     -0.143000
     17 C14         1.0520   -1.9410    3.9460 c1        1 314      0.274000
     18 N2          3.7600   -3.6310    2.3280 nt        1 314     -0.400000
     19 C16         6.7440   -1.2380   -1.0060 cx        1 314     -0.280000
     20 C17         6.6540   -2.0470    0.2600 cx        1 314      0.024000
     21 O3          5.8190   -1.6710    1.2950 oh        1 314     -0.371000
     22 C19         4.2430    1.5840    1.6660 ca        1 314     -0.159000
     23 C20         3.8260    2.8440    2.1360 ca        1 314     -0.083500
     24 C21         2.5060    3.2720    1.9250 ca        1 314      0.082500
     25 C22         1.5860    2.4490    1.2490 ca        1 314     -0.121000
     26 C23         2.0070    1.1910    0.7860 ca        1 314      0.082500
     27 C24         3.3280    0.7570    0.9870 ca        1 314     -0.083500
     28 C25         7.9130   -1.2380   -0.0370 cx        1 314     -0.132000
     29 C26         9.4140    1.6810    2.1530 c3        1 314     -0.214000
     30 C27        10.5560    1.5100    1.1810 c3        1 314     -0.151000
     31 C28        10.8090   -0.6960   -1.8460 c1        1 314     -0.280000
     32 C29         9.9960   -1.2620   -1.1650 c1        1 314     -0.083000
     33 N3          9.1720   -1.8870   -0.2850 n7        1 314     -0.161000
     34 C30        11.7770    0.9840    1.8670 cx        1 314     -0.095000
     35 C31        11.9640   -0.4850    2.0660 cx        1 314     -0.159000
     36 C32        12.7950    0.2270    1.0150 cx        1 314     -0.207000
     37 C33        14.2130    0.4440    1.2790 c2        1 314     -0.004000
     38 C34        15.1620    0.4520    0.3920 c1        1 314      0.247000
     39 C35        16.1490    0.4680   -0.4770 c1        1 314     -0.190000
     40 C36        17.0660    0.4820   -1.2830 c1        1 314      0.185000
     41 H1         -0.8770   -4.5330    1.8950 hc        1 314      0.145500
     42 H3          2.0770   -7.4280    2.0110 ha        1 314      0.200000
     43 H5          2.5080   -5.6000    3.9510 hc        1 314      0.183000
     44 H8         -3.8080   -9.6280    0.0270 hc        1 314      0.072750
     45 H8A        -4.0060   -7.9000   -0.5170 hc        1 314      0.072750
     46 H9         -3.2650   -8.1230    3.6550 h1        1 314      0.132000
     47 H9A        -1.9410   -6.9100    3.9710 h1        1 314      0.132000
     48 H10        -3.1400   -5.2410    2.4720 hc        1 314      0.100000
     49 H10A       -4.4410   -6.4600    2.1520 hc        1 314      0.100000
     50 H11        -3.6460   -5.3610    4.9450 hc        1 314      0.097333
     51 H11A       -4.9650   -6.5600    4.6090 hc        1 314      0.097333
     52 H11B       -5.0920   -4.8720    3.9660 hc        1 314      0.097333
     53 H12        -2.5540   -8.4030    1.4710 hn        1 314      0.277000
     54 H12A       -4.8480   -8.4810    0.9890 hc        1 314      0.072750
     55 H13        -5.3940   -9.0600   -0.6380 hc        1 314      0.072750
     56 H13A       -0.8170  -10.9950   -0.9280 ha        1 314      0.164500
     57 H13B        0.4980  -10.5790    0.3310 ha        1 314      0.164500
     58 H14        -1.4750   -5.6180    5.7250 ha        1 314      0.005750
     59 H14A       -1.6240   -5.2830    6.2950 ha        1 314      0.005750
     60 H14B       -1.0400   -5.1420    3.5990 hc        1 314      0.145500
     61 HN2         3.3670   -3.0420    3.0200 hn        1 314      0.257000
     62 H16         4.5240   -3.2890    1.7860 hn        1 314      0.257000
     63 H17         6.6700   -3.1560    0.2150 h1        1 314      0.145000
     64 HO3         5.8310   -0.6790    1.3970 ho        1 314      0.276000
     65 H18         6.2580    1.7070    2.4390 ha        1 314      0.065000
     66 H18A        6.1560   -0.3080   -1.1000 hc        1 314      0.126000
     67 H20         4.5310    3.5000    2.6710 ha        1 314      0.167500
     68 H22         0.5500    2.7890    1.0870 ha        1 314      0.182000
     69 H24         3.6550   -0.2310    0.6210 ha        1 314      0.167500
     70 H25         8.0790   -0.3040    0.5510 h1        1 314      0.142000
     71 H26         9.6670    2.4340    2.9370 hc        1 314      0.084333
     72 H26A        8.5020    2.0260    1.6060 hc        1 314      0.084333
     73 H27        10.8000    2.4980    0.7060 hc        1 314      0.102000
     74 H28         6.6270    2.1780    0.1000 ha        1 314      0.005750
     75 H28A        9.1750    0.7120    2.6550 hc        1 314      0.084333
     76 H29         6.7500    1.5230   -0.0400 ha        1 314      0.005750
     77 H29A       11.4840   -0.2140   -2.5020 ha        1 314      0.231000
     78 HN3         9.0600   -2.8590   -0.5240 hn        1 314      0.197000
     79 H30        12.1640    1.6700    2.6490 hc        1 314      0.134000
     80 H30A       10.2450    0.8080    0.3570 hc        1 314      0.102000
     81 H32        11.1880   -1.1880    1.7000 hc        1 314      0.146500
     82 H33        12.5360    0.0420   -0.0520 hc        1 314      0.170000
     83 H34        14.4950    0.6200    2.3500 ha        1 314      0.244000
     84 H35        17.8730    0.4950   -1.9910 ha        1 314      0.287000
     85 H36        12.4560   -0.8470    2.9880 hc        1 314      0.146500
     86 H111       -1.7370   -8.6040   -0.7340 h4        1 314      0.178000
     87 H221        6.8290   -1.7710   -1.9690 hc        1 314      0.126000
     88 C18         5.5590    1.0850    1.8610 c1        1 314     -0.096000
     89 C15         3.2390   -4.8560    2.0610 c2        1 314      0.321000
     90 C7         -0.7820   -7.4410    1.6440 c2        1 314      0.363000
     91 O2          3.6930   -5.6040    1.1710 o         1 314     -0.370000
@<TRIPOS>BOND
     1    1   24 1   
     2    2   26 1   
     3    3    4 1   
     4    3    7 1   
     5    3   41 1   
     6    3   60 1   
     7    4    5 1   
     8    4   90 1   
     9    5    6 1   
    10    5   42 1   
    11    6    7 1   
    12    6   43 1   
    13    6   89 1   
    14    7    8 1   
    15    8   17 1   
    16    9   12 1   
    17    9   53 1   
    18    9   90 1   
    19   10   16 1   
    20   10   90 1   
    21   11   44 1   
    22   11   45 1   
    23   11   54 1   
    24   11   55 1   
    25   12   13 1   
    26   12   46 1   
    27   12   47 1   
    28   13   14 1   
    29   13   48 1   
    30   13   49 1   
    31   14   50 1   
    32   14   51 1   
    33   14   52 1   
    34   15   16 1   
    35   15   56 1   
    36   15   57 1   
    37   16   86 1   
    38   18   61 1   
    39   18   62 1   
    40   18   89 1   
    41   19   20 1   
    42   19   28 1   
    43   19   66 1   
    44   19   87 1   
    45   20   21 1   
    46   20   28 1   
    47   20   63 1   
    48   21   64 1   
    49   22   23 1   
    50   22   27 1   
    51   22   88 1   
    52   23   24 1   
    53   23   67 1   
    54   24   25 1   
    55   25   26 1   
    56   25   68 1   
    57   26   27 1   
    58   27   69 1   
    59   28   33 1   
    60   28   70 1   
    61   29   30 1   
    62   29   71 1   
    63   29   72 1   
    64   29   75 1   
    65   30   34 1   
    66   30   73 1   
    67   30   80 1   
    68   31   32 1   
    69   31   77 1   
    70   32   33 1   
    71   33   78 1   
    72   34   35 1   
    73   34   36 1   
    74   34   79 1   
    75   35   36 1   
    76   35   81 1   
    77   35   85 1   
    78   36   37 1   
    79   36   82 1   
    80   37   38 1   
    81   37   83 1   
    82   38   39 1   
    83   39   40 1   
    84   40   84 1   
    85   58   59 1   
    86   65   88 1   
    87   74   76 1   
    88   89   91 1   
@<TRIPOS>SUBSTRUCTURE
     1 314         1 TEMP              0 ****  ****    0 ROOT
