@<TRIPOS>MOLECULE
315
   60    63     1     0     0
SMALL
bcc


@<TRIPOS>ATOM
      1 C1          1.4690   -0.1310   -0.1560 c3        1 315     -0.087700
      2 C2         -0.0080   -0.4640   -0.4210 c3        1 315      0.056500
      3 C3         -0.4070   -1.7360    0.3730 c         1 315      0.639100
      4 N4         -0.2520   -2.9570   -0.2090 n         1 315     -0.430800
      5 O5         -0.9120   -1.5830    1.5080 o         1 315     -0.604100
      6 N6         -0.9140    0.6620   -0.0220 nz        1 315     -0.841600
      7 C8          1.7180    0.3530    1.2670 c3        1 315     -0.067400
      8 C11         0.4300   -3.2140   -1.4620 c3        1 315      0.034000
      9 C12         0.9240   -4.6960   -1.4240 c3        1 315      0.171600
     10 C13         0.2670   -5.3170   -0.1730 c3        1 315     -0.127400
     11 C14        -0.4590   -4.1840    0.5590 c3        1 315      0.084000
     12 F21         2.3030   -4.7460   -1.3650 f         1 315     -0.220300
     13 C23         3.1610    0.2400    1.6440 cx        1 315     -0.154700
     14 C26         3.6380    0.9250    2.8990 cx        1 315     -0.118400
     15 C27         4.0690    1.4430    1.5610 cx        1 315     -0.118400
     16 C33         2.0240    0.8820   -1.1740 c3        1 315      0.325300
     17 N35         1.1640    2.0520   -1.4090 n7        1 315     -0.871200
     18 C36         0.9420    2.1000   -2.8790 c3        1 315      0.384000
     19 N37         1.7100    0.9540   -3.4860 n7        1 315     -0.514700
     20 O38         2.1510    0.1830   -2.4590 os        1 315     -0.246100
     21 C39         1.2920    3.4390   -3.4830 ca        1 315     -0.114300
     22 C40         2.4120    3.6570   -4.2810 ca        1 315     -0.086000
     23 C41         2.6640    4.9280   -4.8020 ca        1 315     -0.036000
     24 C42         1.8100    6.0000   -4.5370 ca        1 315     -0.311500
     25 C43         0.6870    5.7960   -3.7330 ca        1 315     -0.055000
     26 C44         0.4250    4.5230   -3.2050 ca        1 315      0.098900
     27 F48        -0.6640    4.3310   -2.4170 f         1 315     -0.148900
     28 S49         2.1650    7.5610   -5.1300 sy        1 315      1.391300
     29 O50         1.5180    8.4960   -4.3180 o         1 315     -0.639800
     30 O51         3.5460    7.6620   -5.3090 o         1 315     -0.639800
     31 C52         1.3970    7.4700   -6.6240 c3        1 315     -0.374300
     32 H1          2.0490   -1.0880   -0.3190 hc        1 315      0.121700
     33 H2         -0.1470   -0.6230   -1.5330 hx        1 315      0.113700
     34 HN6        -0.9470    0.7070    1.0070 hn        1 315      0.473800
     35 HN6A       -1.8590    0.4920   -0.3710 hn        1 315      0.473800
     36 H8          1.3810    1.4180    1.3800 hc        1 315      0.060200
     37 H8A         1.1140   -0.2770    1.9790 hc        1 315      0.060200
     38 H11        -0.2980   -3.0850   -2.3100 h1        1 315      0.069700
     39 H11A        1.3020   -2.5220   -1.6200 h1        1 315      0.069700
     40 H12         0.5910   -5.2260   -2.3590 h1        1 315      0.086700
     41 H13         1.0430   -5.7800    0.4860 hc        1 315      0.088700
     42 H13A       -0.4560   -6.1130   -0.4750 hc        1 315      0.088700
     43 H14        -0.0690   -4.0490    1.6060 h1        1 315      0.079700
     44 H14A       -1.5650   -4.3820    0.6230 h1        1 315      0.079700
     45 H23         3.5940   -0.7520    1.4030 hc        1 315      0.094700
     46 H26         4.3730    0.4040    3.5390 hc        1 315      0.081950
     47 H26A        2.9180    1.5130    3.4970 hc        1 315      0.081950
     48 H27         3.6600    2.4050    1.2060 hc        1 315      0.081950
     49 H27A        5.1150    1.2960    1.2360 hc        1 315      0.081950
     50 H40         3.1130    2.8350   -4.5090 ha        1 315      0.175000
     51 H41         3.5700    5.0940   -5.4160 ha        1 315      0.175000
     52 H43         0.0130    6.6380   -3.4900 ha        1 315      0.185000
     53 H52         0.2900    7.3290   -6.5520 h1        1 315      0.125033
     54 H52A        1.5440    8.4150   -7.2120 h1        1 315      0.125033
     55 H52B        1.7800    6.6470   -7.2770 h1        1 315      0.125033
     56 H25         3.0750    1.1580   -0.8530 h2        1 315      0.113700
     57 H261        1.6030    2.8940   -1.0820 hn        1 315      0.410800
     58 H271       -0.1760    1.9530   -3.0300 h2        1 315      0.062700
     59 H28         1.0540    0.3810   -4.0180 hn        1 315      0.365800
     60 H63        -0.5360    1.5490   -0.4060 hn        1 315      0.473800
@<TRIPOS>BOND
     1    1    2 1   
     2    1    7 1   
     3    1   16 1   
     4    1   32 1   
     5    2    3 1   
     6    2    6 1   
     7    2   33 1   
     8    3    4 1   
     9    3    5 2   
    10    4    8 1   
    11    4   11 1   
    12    6   34 1   
    13    6   35 1   
    14    6   60 1   
    15    7   13 1   
    16    7   36 1   
    17    7   37 1   
    18    8    9 1   
    19    8   38 1   
    20    8   39 1   
    21    9   10 1   
    22    9   12 1   
    23    9   40 1   
    24   10   11 1   
    25   10   41 1   
    26   10   42 1   
    27   11   43 1   
    28   11   44 1   
    29   13   14 1   
    30   13   15 1   
    31   13   45 1   
    32   14   15 1   
    33   14   46 1   
    34   14   47 1   
    35   15   48 1   
    36   15   49 1   
    37   16   17 1   
    38   16   20 1   
    39   16   56 1   
    40   17   18 1   
    41   17   57 1   
    42   18   19 1   
    43   18   21 1   
    44   18   58 1   
    45   19   20 1   
    46   19   59 1   
    47   21   22 ar  
    48   21   26 ar  
    49   22   23 ar  
    50   22   50 1   
    51   23   24 ar  
    52   23   51 1   
    53   24   25 ar  
    54   24   28 1   
    55   25   26 ar  
    56   25   52 1   
    57   26   27 1   
    58   28   29 2   
    59   28   30 2   
    60   28   31 1   
    61   31   53 1   
    62   31   54 1   
    63   31   55 1   
@<TRIPOS>SUBSTRUCTURE
     1 315         1 TEMP              0 ****  ****    0 ROOT
