@<TRIPOS>MOLECULE
315
   60    63     1     0     0
SMALL
bcc


@<TRIPOS>ATOM
      1 C1          1.4800    0.1610   -0.3900 c3        1 315     -0.096700
      2 C2         -0.0450   -0.0510   -0.3060 c3        1 315      0.050500
      3 C3         -0.4010   -1.1230    0.7630 c         1 315      0.645100
      4 N4         -0.3660   -2.4360    0.4190 n         1 315     -0.434800
      5 O5         -0.7500   -0.7290    1.8970 o         1 315     -0.604100
      6 N6         -0.7520    1.2270    0.0460 n4        1 315     -0.831600
      7 C8          2.0820    0.5010    0.9720 c3        1 315     -0.060400
      8 C11        -0.0090   -2.9750   -0.8750 c3        1 315      0.041000
      9 C12         0.1380   -4.5230   -0.7060 c3        1 315      0.175600
     10 C13        -0.3030   -4.8270    0.7420 c3        1 315     -0.126400
     11 C14        -0.5950   -3.4830    1.4140 c3        1 315      0.090000
     12 F21         1.4390   -4.9130   -0.9470 f         1 315     -0.217300
     13 C23         3.5370    0.1610    1.0330 cx        1 315     -0.156700
     14 C26         3.9790   -1.1710    1.5820 cx        1 315     -0.117900
     15 C27         4.2020    0.0740    2.3820 cx        1 315     -0.117900
     16 C33         1.8180    1.2720   -1.4000 c3        1 315      0.302300
     17 N35         1.0270    1.3400   -2.6320 n3        1 315     -0.828200
     18 C36         2.0130    1.7800   -3.6640 c3        1 315      0.379000
     19 N37         3.3880    1.4930   -3.1080 n3        1 315     -0.517700
     20 O38         3.2250    1.1200   -1.8130 os        1 315     -0.234100
     21 C39         1.8020    3.2390   -4.0040 ca        1 315     -0.072300
     22 C40         2.6990    4.2500   -3.6660 ca        1 315     -0.098000
     23 C41         2.4290    5.5740   -4.0140 ca        1 315     -0.039000
     24 C42         1.2630    5.9170   -4.7020 ca        1 315     -0.324500
     25 C43         0.3600    4.9120   -5.0530 ca        1 315     -0.062000
     26 C44         0.6220    3.5770   -4.7090 ca        1 315      0.105900
     27 F48        -0.2650    2.6110   -5.0550 f         1 315     -0.140900
     28 S49         0.9090    7.5440   -5.0500 sy        1 315      1.391300
     29 O50        -0.4780    7.6780   -5.1770 o         1 315     -0.645300
     30 O51         1.5710    8.3510   -4.1200 o         1 315     -0.645300
     31 C52         1.6420    7.6820   -6.5570 c3        1 315     -0.372300
     32 H1          1.9320   -0.8080   -0.7470 hc        1 315      0.119700
     33 H2         -0.4570   -0.3860   -1.3060 hx        1 315      0.113700
     34 HN6        -0.5380    1.9560   -0.6430 hn        1 315      0.474467
     35 HN6A       -1.7630    1.0630    0.0810 hn        1 315      0.474467
     36 H8          1.9620    1.5990    1.1810 hc        1 315      0.058700
     37 H8A         1.5360   -0.0560    1.7820 hc        1 315      0.058700
     38 H11         0.9580   -2.5420   -1.2490 h1        1 315      0.062700
     39 H11A       -0.8240   -2.7540   -1.6180 h1        1 315      0.062700
     40 H12        -0.5310   -5.0450   -1.4460 h1        1 315      0.086700
     41 H13         0.5060   -5.3740    1.2880 hc        1 315      0.090700
     42 H13A       -1.2180   -5.4690    0.7370 hc        1 315      0.090700
     43 H14        -1.6610   -3.4220    1.7700 h1        1 315      0.079700
     44 H14A        0.0770   -3.3090    2.3000 h1        1 315      0.079700
     45 H23         4.1180    0.5980    0.1940 hc        1 315      0.109700
     46 H26         3.2180   -1.8950    1.9230 hc        1 315      0.080450
     47 H26A        4.8440   -1.6750    1.1140 hc        1 315      0.080450
     48 H27         3.5980    0.2430    3.2920 hc        1 315      0.080450
     49 H27A        5.2280    0.4710    2.4910 hc        1 315      0.080450
     50 H40         3.6310    4.0190   -3.1220 ha        1 315      0.173000
     51 H41         3.1400    6.3690   -3.7210 ha        1 315      0.172000
     52 H43        -0.5760    5.1640   -5.5850 ha        1 315      0.180000
     53 H52         2.7420    7.4800   -6.5410 h1        1 315      0.125367
     54 H52A        1.2070    7.0010   -7.3310 h1        1 315      0.125367
     55 H52B        1.5300    8.7200   -6.9690 h1        1 315      0.125367
     56 H25         1.7640    2.2840   -0.8970 h2        1 315      0.087700
     57 H261        0.6670    0.4390   -2.8900 hn        1 315      0.357800
     58 H271        1.8440    1.1990   -4.6250 h2        1 315      0.089700
     59 H28         3.7640    0.6820   -3.6030 hn        1 315      0.365800
     60 H63        -0.4410    1.5220    0.9830 hn        1 315      0.474467
@<TRIPOS>BOND
     1    1    2 1   
     2    1    7 1   
     3    1   16 1   
     4    1   32 1   
     5    2    3 1   
     6    2    6 1   
     7    2   33 1   
     8    3    4 1   
     9    3    5 2   
    10    4    8 1   
    11    4   11 1   
    12    6   34 1   
    13    6   35 1   
    14    6   60 1   
    15    7   13 1   
    16    7   36 1   
    17    7   37 1   
    18    8    9 1   
    19    8   38 1   
    20    8   39 1   
    21    9   10 1   
    22    9   12 1   
    23    9   40 1   
    24   10   11 1   
    25   10   41 1   
    26   10   42 1   
    27   11   43 1   
    28   11   44 1   
    29   13   14 1   
    30   13   15 1   
    31   13   45 1   
    32   14   15 1   
    33   14   46 1   
    34   14   47 1   
    35   15   48 1   
    36   15   49 1   
    37   16   17 1   
    38   16   20 1   
    39   16   56 1   
    40   17   18 1   
    41   17   57 1   
    42   18   19 1   
    43   18   21 1   
    44   18   58 1   
    45   19   20 1   
    46   19   59 1   
    47   21   22 ar  
    48   21   26 ar  
    49   22   23 ar  
    50   22   50 1   
    51   23   24 ar  
    52   23   51 1   
    53   24   25 ar  
    54   24   28 1   
    55   25   26 ar  
    56   25   52 1   
    57   26   27 1   
    58   28   29 2   
    59   28   30 2   
    60   28   31 1   
    61   31   53 1   
    62   31   54 1   
    63   31   55 1   
@<TRIPOS>SUBSTRUCTURE
     1 315         1 TEMP              0 ****  ****    0 ROOT
