@<TRIPOS>MOLECULE
315
   60    63     1     0     0
SMALL
bcc


@<TRIPOS>ATOM
      1 C1          1.4690    0.1580   -0.3910 c3        1 315     -0.096700
      2 C2         -0.0550   -0.0640   -0.3300 c3        1 315      0.050500
      3 C3         -0.4200   -1.1400    0.7310 c         1 315      0.645100
      4 N4         -0.3700   -2.4530    0.3870 n         1 315     -0.434800
      5 O5         -0.7890   -0.7510    1.8610 o         1 315     -0.604100
      6 N6         -0.7770    1.2080    0.0130 n4        1 315     -0.831600
      7 C8          2.0480    0.5010    0.9820 c3        1 315     -0.060400
      8 C11         0.0110   -2.9880   -0.9020 c3        1 315      0.041000
      9 C12         0.1670   -4.5340   -0.7330 c3        1 315      0.175600
     10 C13        -0.2930   -4.8440    0.7070 c3        1 315     -0.126400
     11 C14        -0.6060   -3.5030    1.3770 c3        1 315      0.090000
     12 F21         1.4760   -4.9140   -0.9550 f         1 315     -0.217300
     13 C23         3.5040    0.1730    1.0630 cx        1 315     -0.156700
     14 C26         3.9490   -1.1570    1.6170 cx        1 315     -0.117900
     15 C27         4.1500    0.0900    2.4230 cx        1 315     -0.117900
     16 C33         1.8140    1.2740   -1.3930 c3        1 315      0.302300
     17 N35         1.0400    1.3400   -2.6360 n3        1 315     -0.828200
     18 C36         2.0380    1.7900   -3.6530 c3        1 315      0.379000
     19 N37         3.4080    1.5100   -3.0780 n3        1 315     -0.517700
     20 O38         3.2280    1.1330   -1.7860 os        1 315     -0.234100
     21 C39         1.8230    3.2480   -3.9920 ca        1 315     -0.072300
     22 C40         2.7090    4.2630   -3.6380 ca        1 315     -0.098000
     23 C41         2.4350    5.5870   -3.9860 ca        1 315     -0.039000
     24 C42         1.2770    5.9240   -4.6900 ca        1 315     -0.324500
     25 C43         0.3850    4.9150   -5.0570 ca        1 315     -0.062000
     26 C44         0.6510    3.5800   -4.7130 ca        1 315      0.105900
     27 F48        -0.2250    2.6100   -5.0740 f         1 315     -0.140900
     28 S49         0.9180    7.5500   -5.0380 sy        1 315      1.391300
     29 O50        -0.4680    7.6750   -5.1850 o         1 315     -0.645300
     30 O51         1.5610    8.3590   -4.0960 o         1 315     -0.645300
     31 C52         1.6710    7.6970   -6.5350 c3        1 315     -0.372300
     32 H1          1.9340   -0.8060   -0.7420 hc        1 315      0.119700
     33 H2         -0.4490   -0.4010   -1.3360 hx        1 315      0.113700
     34 HN6        -0.4840    1.5030    0.9560 hn        1 315      0.474467
     35 HN6A       -1.7880    1.0370    0.0320 hn        1 315      0.474467
     36 H8          1.4940   -0.0620    1.7820 hc        1 315      0.058700
     37 H8A         1.9140    1.5970    1.1910 hc        1 315      0.058700
     38 H11        -0.7940   -2.7720   -1.6570 h1        1 315      0.062700
     39 H11A        0.9800   -2.5470   -1.2610 h1        1 315      0.062700
     40 H12        -0.4850   -5.0600   -1.4840 h1        1 315      0.086700
     41 H13         0.5110   -5.3850    1.2660 hc        1 315      0.090700
     42 H13A       -1.2030   -5.4930    0.6870 hc        1 315      0.090700
     43 H14        -1.6780   -3.4510    1.7150 h1        1 315      0.079700
     44 H14A        0.0510   -3.3250    2.2730 h1        1 315      0.079700
     45 H23         4.0940    0.6170    0.2340 hc        1 315      0.109700
     46 H26         3.1890   -1.8870    1.9450 hc        1 315      0.080450
     47 H26A        4.8260   -1.6520    1.1610 hc        1 315      0.080450
     48 H27         3.5300    0.2520    3.3230 hc        1 315      0.080450
     49 H27A        5.1700    0.4950    2.5480 hc        1 315      0.080450
     50 H40         3.6340    4.0370   -3.0810 ha        1 315      0.173000
     51 H41         3.1370    6.3860   -3.6810 ha        1 315      0.172000
     52 H43        -0.5440    5.1620   -5.6010 ha        1 315      0.180000
     53 H52         2.7710    7.4980   -6.5040 h1        1 315      0.125367
     54 H52A        1.2490    7.0180   -7.3170 h1        1 315      0.125367
     55 H52B        1.5620    8.7360   -6.9430 h1        1 315      0.125367
     56 H25         1.7460    2.2850   -0.8890 h2        1 315      0.087700
     57 H261        0.6910    0.4370   -2.9020 hn        1 315      0.357800
     58 H271        1.8870    1.2100   -4.6180 h2        1 315      0.089700
     59 H28         3.7950    0.7030   -3.5690 hn        1 315      0.365800
     60 H63        -0.5570    1.9400   -0.6710 hn        1 315      0.474467
@<TRIPOS>BOND
     1    1    2 1   
     2    1    7 1   
     3    1   16 1   
     4    1   32 1   
     5    2    3 1   
     6    2    6 1   
     7    2   33 1   
     8    3    4 1   
     9    3    5 2   
    10    4    8 1   
    11    4   11 1   
    12    6   34 1   
    13    6   35 1   
    14    6   60 1   
    15    7   13 1   
    16    7   36 1   
    17    7   37 1   
    18    8    9 1   
    19    8   38 1   
    20    8   39 1   
    21    9   10 1   
    22    9   12 1   
    23    9   40 1   
    24   10   11 1   
    25   10   41 1   
    26   10   42 1   
    27   11   43 1   
    28   11   44 1   
    29   13   14 1   
    30   13   15 1   
    31   13   45 1   
    32   14   15 1   
    33   14   46 1   
    34   14   47 1   
    35   15   48 1   
    36   15   49 1   
    37   16   17 1   
    38   16   20 1   
    39   16   56 1   
    40   17   18 1   
    41   17   57 1   
    42   18   19 1   
    43   18   21 1   
    44   18   58 1   
    45   19   20 1   
    46   19   59 1   
    47   21   22 ar  
    48   21   26 ar  
    49   22   23 ar  
    50   22   50 1   
    51   23   24 ar  
    52   23   51 1   
    53   24   25 ar  
    54   24   28 1   
    55   25   26 ar  
    56   25   52 1   
    57   26   27 1   
    58   28   29 2   
    59   28   30 2   
    60   28   31 1   
    61   31   53 1   
    62   31   54 1   
    63   31   55 1   
@<TRIPOS>SUBSTRUCTURE
     1 315         1 TEMP              0 ****  ****    0 ROOT
