@<TRIPOS>MOLECULE
316
   87    90     1     0     0
SMALL
bcc


@<TRIPOS>ATOM
      1 C1         -4.3400    1.4900   -2.2920 ca        1 316     -0.078000
      2 C2         -4.3750    1.0320   -0.9730 ca        1 316     -0.127600
      3 C3         -3.2300    0.4950   -0.3800 ca        1 316     -0.059000
      4 C4         -2.0450    0.4190   -1.1190 ca        1 316     -0.138600
      5 C5         -2.0030    0.8850   -2.4360 ca        1 316     -0.097000
      6 C6         -3.1500    1.4250   -3.0280 ca        1 316     -0.083300
      7 C7         -5.6710    1.0570   -0.2290 c         1 316      0.671700
      8 N1         -5.8350    1.9700    0.8020 n         1 316     -0.470800
      9 O1         -6.5840    0.2610   -0.5290 o         1 316     -0.595100
     10 C8         -7.0890    2.0250    1.5230 c3        1 316      0.090000
     11 C9         -4.8530    2.9800    1.1110 c3        1 316      0.090000
     12 C10        -5.0270    4.3010    0.3560 c3        1 316     -0.101400
     13 C11        -3.9700    5.2850    0.7830 c3        1 316     -0.093100
     14 C12        -7.0450    1.3850    2.9130 c3        1 316     -0.101400
     15 C13        -8.3880    1.5170    3.5830 c3        1 316     -0.093100
     16 C14        -3.1080    1.9310   -4.4190 c3        1 316     -0.056800
     17 C15        -0.8350   -0.1410   -0.4490 c         1 316      0.673700
     18 O2         -0.5590    0.1400    0.7370 o         1 316     -0.615100
     19 N2         -0.0570   -1.0160   -1.1790 n         1 316     -0.554900
     20 C16         1.1800   -1.5560   -0.6640 c3        1 316      0.122700
     21 C17         2.3920   -0.6570   -1.0610 c3        1 316      0.138100
     22 O3          2.5200   -0.7710   -2.4660 oh        1 316     -0.616800
     23 C18         1.4300   -2.9930   -1.1530 c3        1 316     -0.049100
     24 C19         0.3450   -3.9310   -0.7520 ca        1 316     -0.022300
     25 C20        -0.4780   -4.5030   -1.7240 ca        1 316     -0.179500
     26 C21        -1.4880   -5.4040   -1.3400 ca        1 316      0.154400
     27 C22        -1.6800   -5.7400    0.0100 ca        1 316     -0.209000
     28 C23        -0.8400   -5.1550    0.9720 ca        1 316      0.154400
     29 C24         0.1720   -4.2550    0.5970 ca        1 316     -0.179500
     30 F1         -2.2850   -5.9590   -2.2840 f         1 316     -0.136400
     31 F2         -1.0070   -5.4690    2.2800 f         1 316     -0.136400
     32 C25         3.7270   -1.0770   -0.3870 c3        1 316      0.074500
     33 C26         4.7590    0.0500   -0.6360 c         1 316      0.661500
     34 N4          5.8190    0.2010    0.2430 n         1 316     -0.451800
     35 C28         5.8010   -0.4110    1.5520 c3        1 316      0.051000
     36 C29         4.8620   -1.6280    1.6570 c3        1 316      0.145800
     37 N3          3.5840   -1.4680    1.0030 n3        1 316     -0.801200
     38 O4          4.6770    0.7550   -1.6660 o         1 316     -0.669500
     39 C27         6.7800    1.2680    0.0480 c3        1 316      0.130300
     40 C31         6.4460    2.5640    0.7310 ca        1 316     -0.123300
     41 C32         7.1620    2.9800    1.8560 ca        1 316     -0.116500
     42 C33         6.8670    4.2030    2.4590 ca        1 316     -0.132500
     43 C34         5.8540    5.0100    1.9450 ca        1 316     -0.122000
     44 C35         5.1350    4.5960    0.8220 ca        1 316     -0.132500
     45 C36         5.4300    3.3770    0.2150 ca        1 316     -0.116500
     46 H1         -5.2530    1.8940   -2.7570 ha        1 316      0.148000
     47 H3         -3.2480    0.1330    0.6610 ha        1 316      0.163000
     48 H5         -1.0670    0.8440   -3.0150 ha        1 316      0.140000
     49 H8         -7.3880    3.1070    1.6320 h1        1 316      0.057450
     50 H8A        -7.8830    1.5030    0.9140 h1        1 316      0.057450
     51 H9         -4.9090    3.1900    2.2180 h1        1 316      0.057450
     52 H9A        -3.8220    2.5760    0.8950 h1        1 316      0.057450
     53 H10        -4.9540    4.1190   -0.7480 hc        1 316      0.046200
     54 H10A       -6.0450    4.7270    0.5580 hc        1 316      0.046200
     55 H11        -4.0930    6.2470    0.2300 hc        1 316      0.036033
     56 H11A       -4.0430    5.4970    1.8780 hc        1 316      0.036033
     57 H11B       -2.9480    4.8850    0.5730 hc        1 316      0.036033
     58 H12        -6.7720    0.3010    2.8210 hc        1 316      0.046200
     59 H12A       -6.2580    1.8770    3.5410 hc        1 316      0.046200
     60 H13        -8.3590    1.0490    4.5970 hc        1 316      0.036033
     61 H13A       -8.6710    2.5910    3.7000 hc        1 316      0.036033
     62 H13B       -9.1810    1.0090    2.9830 hc        1 316      0.036033
     63 H14        -2.9050    3.0330   -4.4180 hc        1 316      0.049033
     64 H14A       -2.3010    1.4280   -5.0060 hc        1 316      0.049033
     65 H14B       -4.0830    1.7560   -4.9360 hc        1 316      0.049033
     66 HN2        -0.2310   -1.1380   -2.1490 hn        1 316      0.320500
     67 H16         1.0930   -1.5590    0.4640 h1        1 316      0.096700
     68 H17         2.1720    0.4100   -0.7740 h1        1 316      0.054700
     69 HO3         3.1430   -0.0910   -2.7630 ho        1 316      0.438000
     70 H18         1.5590   -2.9900   -2.2690 hc        1 316      0.073700
     71 H18A        2.3970   -3.3420   -0.7010 hc        1 316      0.073700
     72 H20        -0.3490   -4.2580   -2.7880 ha        1 316      0.154500
     73 H22        -2.4710   -6.4420    0.3070 ha        1 316      0.165000
     74 H24         0.8180   -3.8080    1.3660 ha        1 316      0.154500
     75 H25         4.1290   -1.9740   -0.9520 h1        1 316      0.099700
     76 H28         6.8490   -0.7480    1.7990 h1        1 316      0.050700
     77 H28A        5.5030    0.3610    2.3200 h1        1 316      0.050700
     78 H29         5.3700   -2.5260    1.2050 h1        1 316      0.068700
     79 H29A        4.6830   -1.8390    2.7480 h1        1 316      0.068700
     80 HN3         3.0070   -0.8090    1.4960 hn        1 316      0.373800
     81 H27         7.7780    0.8950    0.4190 h1        1 316      0.071700
     82 H27A        6.8630    1.4590   -1.0630 h1        1 316      0.071700
     83 H32         7.9640    2.3480    2.2640 ha        1 316      0.140500
     84 H33         7.4360    4.5290    3.3430 ha        1 316      0.133500
     85 H34         5.6220    5.9730    2.4220 ha        1 316      0.133000
     86 H35         4.3370    5.2330    0.4140 ha        1 316      0.133500
     87 H36         4.8710    3.0430   -0.6750 ha        1 316      0.140500
@<TRIPOS>BOND
     1    1    2 ar  
     2    1    6 ar  
     3    1   46 1   
     4    2    3 ar  
     5    2    7 1   
     6    3    4 ar  
     7    3   47 1   
     8    4    5 ar  
     9    4   17 1   
    10    5    6 ar  
    11    5   48 1   
    12    6   16 1   
    13    7    8 1   
    14    7    9 2   
    15    8   10 1   
    16    8   11 1   
    17   10   14 1   
    18   10   49 1   
    19   10   50 1   
    20   11   12 1   
    21   11   51 1   
    22   11   52 1   
    23   12   13 1   
    24   12   53 1   
    25   12   54 1   
    26   13   55 1   
    27   13   56 1   
    28   13   57 1   
    29   14   15 1   
    30   14   58 1   
    31   14   59 1   
    32   15   60 1   
    33   15   61 1   
    34   15   62 1   
    35   16   63 1   
    36   16   64 1   
    37   16   65 1   
    38   17   18 2   
    39   17   19 1   
    40   19   20 1   
    41   19   66 1   
    42   20   21 1   
    43   20   23 1   
    44   20   67 1   
    45   21   22 1   
    46   21   32 1   
    47   21   68 1   
    48   22   69 1   
    49   23   24 1   
    50   23   70 1   
    51   23   71 1   
    52   24   25 ar  
    53   24   29 ar  
    54   25   26 ar  
    55   25   72 1   
    56   26   27 ar  
    57   26   30 1   
    58   27   28 ar  
    59   27   73 1   
    60   28   29 ar  
    61   28   31 1   
    62   29   74 1   
    63   32   33 1   
    64   32   37 1   
    65   32   75 1   
    66   33   34 1   
    67   33   38 2   
    68   34   35 1   
    69   34   39 1   
    70   35   36 1   
    71   35   76 1   
    72   35   77 1   
    73   36   37 1   
    74   36   78 1   
    75   36   79 1   
    76   37   80 1   
    77   39   40 1   
    78   39   81 1   
    79   39   82 1   
    80   40   41 ar  
    81   40   45 ar  
    82   41   42 ar  
    83   41   83 1   
    84   42   43 ar  
    85   42   84 1   
    86   43   44 ar  
    87   43   85 1   
    88   44   45 ar  
    89   44   86 1   
    90   45   87 1   
@<TRIPOS>SUBSTRUCTURE
     1 316         1 TEMP              0 ****  ****    0 ROOT
