@<TRIPOS>MOLECULE
316
   87    83     1     0     0
SMALL
bcc


@<TRIPOS>ATOM
      1 C1         -2.2580    1.2190   -4.1050 c1        1 316     -0.070000
      2 C2         -1.0510    0.5470   -4.2110 c1        1 316     -0.113000
      3 C3         -0.1910    0.4590   -3.0900 c1        1 316     -0.055000
      4 C4         -0.5590    1.0510   -1.8750 c1        1 316     -0.122000
      5 C5         -1.7720    1.7240   -1.7740 c1        1 316     -0.092000
      6 C6         -2.6280    1.8120   -2.8900 c1        1 316     -0.080000
      7 C7         -0.7110   -0.2500   -5.5100 c2        1 316      0.344000
      8 N1         -1.6430   -0.2880   -6.5850 n         1 316     -0.327000
      9 O1          0.3070   -0.9400   -5.5550 o         1 316     -0.359000
     10 C8         -1.8020    0.8540   -7.4500 c3        1 316     -0.024500
     11 C9         -2.3740   -1.5070   -6.8570 c3        1 316     -0.024500
     12 C10        -2.6690   -1.6080   -8.3950 c3        1 316     -0.180000
     13 C11        -2.7380   -3.1020   -8.8160 c3        1 316     -0.211000
     14 C12        -0.6430    0.9370   -8.3870 c3        1 316     -0.180000
     15 C13        -0.9740    1.9090   -9.5310 c3        1 316     -0.211000
     16 C14        -3.9870    2.5070   -2.7610 c3        1 316     -0.182000
     17 C15         0.3230    0.8340   -0.5970 c2        1 316      0.343000
     18 O2          1.3140    0.1620   -0.6590 o         1 316     -0.372000
     19 N2         -0.0950    1.3950    0.6780 n         1 316     -0.360000
     20 C16         0.5750    0.9780    1.9070 c3        1 316      0.043000
     21 C17        -0.4140    0.2210    2.7940 c3        1 316      0.023000
     22 O3         -1.2320    1.1240    3.4540 oh        1 316     -0.346000
     23 C18         1.0790    2.1690    2.6200 c3        1 316     -0.134000
     24 C19         2.3940    2.6320    1.9620 c2        1 316     -0.011000
     25 C20         3.5480    1.8290    2.0590 c2        1 316     -0.177000
     26 C21         4.7660    2.3050    1.5850 c1        1 316      0.119000
     27 C22         4.8460    3.5770    1.0130 c1        1 316     -0.212000
     28 C23         3.7020    4.3770    0.9150 c1        1 316      0.116000
     29 C24         2.4770    3.9030    1.3890 c1        1 316     -0.180000
     30 F1          5.8840    1.4970    1.6250 f         1 316     -0.102000
     31 F2          3.7680    5.5670    0.2870 f         1 316     -0.103000
     32 C25         0.3510   -0.6150    3.8190 c3        1 316     -0.074000
     33 C26        -0.5890   -1.0400    5.0490 c2        1 316      0.273000
     34 N4          0.0270   -1.8880    5.9300 n         1 316     -0.317000
     35 C28         0.6670   -3.0060    5.2840 c3        1 316     -0.062000
     36 C29         1.5420   -2.6330    4.1960 c3        1 316     -0.095000
     37 N3          0.9040   -1.7550    3.2370 n3        1 316     -0.278000
     38 O4         -1.4660   -0.2730    5.4490 o         1 316     -0.397000
     39 C27        -0.5060   -2.0340    7.2910 c3        1 316      0.011000
     40 C31         0.6690   -2.2900    8.2860 c2        1 316     -0.113000
     41 C32         0.7630   -3.4860    8.9480 c2        1 316     -0.122000
     42 C33         1.8310   -3.7190    9.8250 c1        1 316     -0.134000
     43 C34         2.7960   -2.7300   10.0230 c1        1 316     -0.127000
     44 C35         2.6990   -1.5250    9.3540 c1        1 316     -0.127000
     45 C36         1.6400   -1.2990    8.4860 c1        1 316     -0.109000
     46 H1         -2.8530    1.2800   -4.8780 ha        1 316      0.152000
     47 H3          0.6420   -0.0050   -3.1610 ha        1 316      0.165000
     48 H5         -2.0400    2.1540   -0.8970 ha        1 316      0.138000
     49 H8         -1.8450    1.6750   -6.9080 h1        1 316      0.094250
     50 H8A        -2.6000    0.7620   -7.9460 h1        1 316      0.094250
     51 H9         -3.1970   -1.4970   -6.3750 h1        1 316      0.094250
     52 H9A        -1.8240   -2.3020   -6.5670 h1        1 316      0.094250
     53 H10        -1.9370   -1.1520   -8.9050 hc        1 316      0.087000
     54 H10A       -3.5310   -1.1690   -8.5940 hc        1 316      0.087000
     55 H11        -2.0800   -3.5980   -8.3320 hc        1 316      0.075500
     56 H11A       -2.5610   -3.1800   -9.7930 hc        1 316      0.075500
     57 H11B       -3.6520   -3.4680   -8.6120 hc        1 316      0.075500
     58 H12         0.1630    1.2650   -7.8940 hc        1 316      0.087000
     59 H12A       -0.4630    0.0580   -8.7550 hc        1 316      0.087000
     60 H13        -1.8450    1.6050   -9.9990 hc        1 316      0.075500
     61 H13A       -0.2260    1.9120  -10.1900 hc        1 316      0.075500
     62 H13B       -1.0960    2.8220   -9.1650 hc        1 316      0.075500
     63 H14        -4.0210    3.0010   -1.9220 hc        1 316      0.088667
     64 H14A       -4.6950    1.8370   -2.7740 hc        1 316      0.088667
     65 H14B       -4.1070    3.1090   -3.4880 hc        1 316      0.088667
     66 HN2        -0.7000    2.0750    0.6980 hn        1 316      0.229000
     67 H16         1.3540    0.3700    1.6750 h1        1 316      0.135000
     68 H17        -0.9380   -0.3400    2.2620 h1        1 316      0.095000
     69 HO3        -2.1000    0.9020    3.3130 ho        1 316      0.239000
     70 H18         1.2420    1.9500    3.5390 hc        1 316      0.114000
     71 H18A        0.4070    2.8950    2.5680 hc        1 316      0.114000
     72 H20         3.4910    0.8980    2.4770 ha        1 316      0.159000
     73 H22         5.7230    3.9170    0.6730 ha        1 316      0.163000
     74 H24         1.6730    4.4640    1.3180 ha        1 316      0.152000
     75 H25         1.0570    0.0300    4.1060 h1        1 316      0.139000
     76 H28         1.2030   -3.5030    5.9650 h1        1 316      0.091000
     77 H28A       -0.0170   -3.5960    4.9390 h1        1 316      0.091000
     78 H29         1.8340   -3.4610    3.7250 h1        1 316      0.108500
     79 H29A        2.3650   -2.1620    4.5790 h1        1 316      0.108500
     80 HN3         0.2650   -2.2060    2.8030 hn        1 316      0.169000
     81 H27        -1.1090   -2.7610    7.3190 h1        1 316      0.110500
     82 H27A       -0.9720   -1.2160    7.5450 h1        1 316      0.110500
     83 H32         0.0730   -4.1910    8.8050 ha        1 316      0.128000
     84 H33         1.9020   -4.6160   10.3220 ha        1 316      0.132000
     85 H34         3.4950   -2.8800   10.5960 ha        1 316      0.134000
     86 H35         3.3770   -0.8300    9.4920 ha        1 316      0.134000
     87 H36         1.5710   -0.4510    8.0150 ha        1 316      0.154000
@<TRIPOS>BOND
     1    1    6 1   
     2    1   46 1   
     3    2    3 1   
     4    2    7 1   
     5    3   47 1   
     6    4    5 1   
     7    4   17 1   
     8    5   48 1   
     9    6   16 1   
    10    7    8 1   
    11    7    9 1   
    12    8   10 1   
    13    8   11 1   
    14   10   14 1   
    15   10   49 1   
    16   10   50 1   
    17   11   12 1   
    18   11   51 1   
    19   11   52 1   
    20   12   13 1   
    21   12   53 1   
    22   12   54 1   
    23   13   55 1   
    24   13   56 1   
    25   13   57 1   
    26   14   15 1   
    27   14   58 1   
    28   14   59 1   
    29   15   60 1   
    30   15   61 1   
    31   15   62 1   
    32   16   63 1   
    33   16   64 1   
    34   16   65 1   
    35   17   18 1   
    36   17   19 1   
    37   19   20 1   
    38   19   66 1   
    39   20   21 1   
    40   20   23 1   
    41   20   67 1   
    42   21   22 1   
    43   21   32 1   
    44   21   68 1   
    45   22   69 1   
    46   23   24 1   
    47   23   70 1   
    48   23   71 1   
    49   24   25 1   
    50   24   29 1   
    51   25   26 1   
    52   25   72 1   
    53   26   30 1   
    54   27   28 1   
    55   27   73 1   
    56   28   31 1   
    57   29   74 1   
    58   32   33 1   
    59   32   37 1   
    60   32   75 1   
    61   33   34 1   
    62   33   38 1   
    63   34   35 1   
    64   34   39 1   
    65   35   36 1   
    66   35   76 1   
    67   35   77 1   
    68   36   37 1   
    69   36   78 1   
    70   36   79 1   
    71   37   80 1   
    72   39   40 1   
    73   39   81 1   
    74   39   82 1   
    75   40   41 1   
    76   40   45 1   
    77   41   42 1   
    78   41   83 1   
    79   42   84 1   
    80   43   44 1   
    81   43   85 1   
    82   44   86 1   
    83   45   87 1   
@<TRIPOS>SUBSTRUCTURE
     1 316         1 TEMP              0 ****  ****    0 ROOT
