@<TRIPOS>MOLECULE
316
   89    92     1     0     0
SMALL
bcc


@<TRIPOS>ATOM
      1 C1         -0.3120   -0.9950    1.3900 ca        1 316     -0.055000
      2 C2          0.9920   -1.3210    0.9930 ca        1 316     -0.184600
      3 C3          2.0830   -0.9650    1.7980 ca        1 316     -0.003000
      4 C4          1.8620   -0.2520    2.9880 ca        1 316     -0.180600
      5 C5          0.5610    0.0750    3.3810 ca        1 316     -0.049000
      6 C6         -0.5320   -0.2970    2.5830 ca        1 316     -0.041300
      7 C7          1.2920   -2.1220   -0.2100 c         1 316      0.557700
      8 N1          0.4090   -1.9190   -1.4210 n4        1 316     -0.588200
      9 O1          2.2100   -2.9260   -0.3140 o         1 316     -0.397100
     10 C8          1.1100   -1.0770   -2.4530 c3        1 316      0.108300
     11 C9         -0.0430   -3.2480   -1.9570 c3        1 316      0.108300
     12 C10        -1.0700   -3.1390   -3.0770 c3        1 316     -0.100900
     13 C11        -1.5730   -4.5190   -3.4240 c3        1 316     -0.104100
     14 C12         2.2650   -1.7530   -3.1810 c3        1 316     -0.100900
     15 C13         2.9890   -0.7280   -4.0200 c3        1 316     -0.104100
     16 C14        -1.9060    0.0360    3.0260 c3        1 316     -0.083800
     17 C15         3.0530    0.0470    3.8050 c         1 316      0.560700
     18 O2          4.0920   -0.6010    3.8260 o         1 316     -0.401100
     19 N2          3.0260    1.2840    4.6550 n4        1 316     -0.674800
     20 C16         3.1580    0.9860    6.1410 c3        1 316      0.138500
     21 C17         1.8370    0.3640    6.6600 c3        1 316      0.148100
     22 O3          0.8390    1.3310    6.3720 oh        1 316     -0.665800
     23 C18         3.5020    2.2820    6.8880 c3        1 316     -0.062100
     24 C19         4.7440    2.9170    6.3640 ca        1 316     -0.094300
     25 C20         4.6460    3.9470    5.4240 ca        1 316     -0.204500
     26 C21         5.8170    4.5720    4.9520 ca        1 316      0.184900
     27 C22         7.0820    4.1680    5.4120 ca        1 316     -0.184000
     28 C23         7.1590    3.1320    6.3580 ca        1 316      0.184900
     29 C24         5.9890    2.5020    6.8320 ca        1 316     -0.204500
     30 F1          5.7180    5.5640    4.0420 f         1 316     -0.105400
     31 F2          8.3620    2.7310    6.8170 f         1 316     -0.105400
     32 C25         1.8640   -0.0110    8.1680 c3        1 316      0.079500
     33 C26         0.6080   -0.8930    8.4060 c         1 316      0.698500
     34 N4          0.6390   -1.8960    9.3370 n         1 316     -0.420800
     35 C28         1.8950   -2.4010    9.8440 c3        1 316      0.080000
     36 C29         3.0360   -1.3720    9.8050 c3        1 316      0.143800
     37 N3          3.1100   -0.6550    8.5470 n3        1 316     -0.822200
     38 O4         -0.4310   -0.5880    7.7730 o         1 316     -0.692500
     39 C27        -0.5430   -2.7060    9.5880 c3        1 316      0.129300
     40 C31        -0.6040   -3.9930    8.8190 ca        1 316     -0.132300
     41 C32         0.0550   -5.1310    9.2950 ca        1 316     -0.114000
     42 C33        -0.0490   -6.3390    8.6070 ca        1 316     -0.129500
     43 C34        -0.8110   -6.4140    7.4400 ca        1 316     -0.110000
     44 C35        -1.4650   -5.2790    6.9610 ca        1 316     -0.129500
     45 C36        -1.3610   -4.0690    7.6460 ca        1 316     -0.114000
     46 H1         -1.1910   -1.3080    0.8020 ha        1 316      0.154000
     47 H3          3.1090   -1.2640    1.5110 ha        1 316      0.191000
     48 H5          0.3520    0.5950    4.3380 ha        1 316      0.189000
     49 H8          0.3270   -0.7700   -3.2070 hx        1 316      0.105700
     50 H8A         1.4830   -0.1530   -1.9230 hx        1 316      0.105700
     51 H9          0.8720   -3.8040   -2.3170 hx        1 316      0.105700
     52 H9A        -0.4860   -3.8200   -1.0900 hx        1 316      0.105700
     53 H10        -0.6030   -2.6720   -3.9860 hc        1 316      0.069700
     54 H10A       -1.9320   -2.4930   -2.7630 hc        1 316      0.069700
     55 H11        -0.7350   -5.1810   -3.7510 hc        1 316      0.064200
     56 H11A       -2.3090   -4.4460   -4.2630 hc        1 316      0.064200
     57 H11B       -2.0830   -4.9930   -2.5500 hc        1 316      0.064200
     58 H12         2.9790   -2.2200   -2.4510 hc        1 316      0.069700
     59 H12A        1.8740   -2.5700   -3.8450 hc        1 316      0.069700
     60 H13         3.4340    0.0730   -3.3820 hc        1 316      0.064200
     61 H13A        3.8170   -1.2280   -4.5830 hc        1 316      0.064200
     62 H13B        2.3000   -0.2550   -4.7610 hc        1 316      0.064200
     63 H14        -2.6730   -0.3260    2.2970 hc        1 316      0.080700
     64 H14A       -2.0210    1.1440    3.1370 hc        1 316      0.080700
     65 H14B       -2.1170   -0.4370    4.0210 hc        1 316      0.080700
     66 HN2         3.8210    1.8910    4.3900 hn        1 316      0.475300
     67 H16         4.0000    0.2360    6.2370 hx        1 316      0.135700
     68 H17         1.6150   -0.5730    6.0700 h1        1 316      0.062700
     69 HO3         0.0400    1.1400    6.8950 ho        1 316      0.486000
     70 H18         3.6370    2.0290    7.9750 hc        1 316      0.101200
     71 H18A        2.6320    2.9940    6.8290 hc        1 316      0.101200
     72 H20         3.6680    4.3290    5.0960 ha        1 316      0.156000
     73 H22         7.9960    4.6670    5.0510 ha        1 316      0.194000
     74 H24         6.0780    1.7030    7.5840 ha        1 316      0.156000
     75 H25         1.6700    0.9410    8.7560 h1        1 316      0.074700
     76 H28         2.1910   -3.3180    9.2540 h1        1 316      0.073700
     77 H28A        1.7450   -2.7140   10.9180 h1        1 316      0.073700
     78 H29         2.9210   -0.6710   10.6840 h1        1 316      0.067200
     79 H29A        4.0090   -1.9290    9.9280 h1        1 316      0.067200
     80 HN3         3.8470    0.0270    8.5930 hn        1 316      0.367800
     81 H27        -1.4510   -2.0790    9.3440 h1        1 316      0.084200
     82 H27A       -0.5580   -2.9340   10.6940 h1        1 316      0.084200
     83 H32         0.6430   -5.0770   10.2240 ha        1 316      0.135000
     84 H33         0.4610   -7.2360    8.9910 ha        1 316      0.140000
     85 H34        -0.9030   -7.3720    6.9050 ha        1 316      0.144000
     86 H35        -2.0780   -5.3430    6.0500 ha        1 316      0.140000
     87 H36        -1.8840   -3.1750    7.2750 ha        1 316      0.135000
     88 H111       -0.4270   -1.3950   -1.1340 hn        1 316      0.445800
     89 H221        2.1500    1.8040    4.5140 hn        1 316      0.475300
@<TRIPOS>BOND
     1    1    2 ar  
     2    1    6 ar  
     3    1   46 1   
     4    2    3 ar  
     5    2    7 1   
     6    3    4 ar  
     7    3   47 1   
     8    4    5 ar  
     9    4   17 1   
    10    5    6 ar  
    11    5   48 1   
    12    6   16 1   
    13    7    8 1   
    14    7    9 2   
    15    8   10 1   
    16    8   11 1   
    17    8   88 1   
    18   10   14 1   
    19   10   49 1   
    20   10   50 1   
    21   11   12 1   
    22   11   51 1   
    23   11   52 1   
    24   12   13 1   
    25   12   53 1   
    26   12   54 1   
    27   13   55 1   
    28   13   56 1   
    29   13   57 1   
    30   14   15 1   
    31   14   58 1   
    32   14   59 1   
    33   15   60 1   
    34   15   61 1   
    35   15   62 1   
    36   16   63 1   
    37   16   64 1   
    38   16   65 1   
    39   17   18 2   
    40   17   19 1   
    41   19   20 1   
    42   19   66 1   
    43   19   89 1   
    44   20   21 1   
    45   20   23 1   
    46   20   67 1   
    47   21   22 1   
    48   21   32 1   
    49   21   68 1   
    50   22   69 1   
    51   23   24 1   
    52   23   70 1   
    53   23   71 1   
    54   24   25 ar  
    55   24   29 ar  
    56   25   26 ar  
    57   25   72 1   
    58   26   27 ar  
    59   26   30 1   
    60   27   28 ar  
    61   27   73 1   
    62   28   29 ar  
    63   28   31 1   
    64   29   74 1   
    65   32   33 1   
    66   32   37 1   
    67   32   75 1   
    68   33   34 1   
    69   33   38 2   
    70   34   35 1   
    71   34   39 1   
    72   35   36 1   
    73   35   76 1   
    74   35   77 1   
    75   36   37 1   
    76   36   78 1   
    77   36   79 1   
    78   37   80 1   
    79   39   40 1   
    80   39   81 1   
    81   39   82 1   
    82   40   41 ar  
    83   40   45 ar  
    84   41   42 ar  
    85   41   83 1   
    86   42   43 ar  
    87   42   84 1   
    88   43   44 ar  
    89   43   85 1   
    90   44   45 ar  
    91   44   86 1   
    92   45   87 1   
@<TRIPOS>SUBSTRUCTURE
     1 316         1 TEMP              0 ****  ****    0 ROOT
