@<TRIPOS>MOLECULE
316
   89    92     1     0     0
SMALL
bcc


@<TRIPOS>ATOM
      1 C1         -0.3270   -0.9370    1.0810 ca        1 316     -0.056000
      2 C2          0.9760   -1.2990    0.7140 ca        1 316     -0.183600
      3 C3          2.0470   -1.0560    1.5860 ca        1 316     -0.004000
      4 C4          1.8070   -0.4210    2.8140 ca        1 316     -0.182600
      5 C5          0.5060   -0.0580    3.1800 ca        1 316     -0.050000
      6 C6         -0.5660   -0.3170    2.3130 ca        1 316     -0.041300
      7 C7          1.2920   -2.0260   -0.5320 c         1 316      0.556700
      8 N1          0.4660   -1.7040   -1.7570 nx        1 316     -0.588200
      9 O1          2.1820   -2.8570   -0.6580 o         1 316     -0.398100
     10 C8          1.2400   -0.8280   -2.7040 c3        1 316      0.108300
     11 C9         -0.0210   -2.9740   -2.3970 c3        1 316      0.108300
     12 C10        -0.9980   -2.7450   -3.5430 c3        1 316     -0.100900
     13 C11        -1.5450   -4.0760   -4.0000 c3        1 316     -0.104100
     14 C12         2.3920   -1.5050   -3.4370 c3        1 316     -0.100900
     15 C13         3.1890   -0.4610   -4.1800 c3        1 316     -0.104100
     16 C14        -1.9430    0.0430    2.7240 c3        1 316     -0.082800
     17 C15         2.9660   -0.2410    3.7090 c         1 316      0.559700
     18 O2          3.9360   -0.9850    3.7860 o         1 316     -0.403100
     19 N2          2.9910    0.9870    4.5700 ny        1 316     -0.676800
     20 C16         3.1280    0.6760    6.0530 c3        1 316      0.148500
     21 C17         1.8030    0.0640    6.5800 c3        1 316      0.152100
     22 O3          0.7900    0.9940    6.2320 oh        1 316     -0.661800
     23 C18         3.5030    1.9530    6.8170 c3        1 316     -0.064100
     24 C19         4.6940    2.6350    6.2370 ca        1 316     -0.092300
     25 C20         4.5150    3.6530    5.2940 ca        1 316     -0.205500
     26 C21         5.6380    4.3240    4.7740 ca        1 316      0.182400
     27 C22         6.9360    3.9800    5.1870 ca        1 316     -0.186000
     28 C23         7.0940    2.9570    6.1360 ca        1 316      0.182400
     29 C24         5.9730    2.2790    6.6600 ca        1 316     -0.205500
     30 F1          5.4600    5.3040    3.8610 f         1 316     -0.107400
     31 F2          8.3310    2.6130    6.5510 f         1 316     -0.107400
     32 C25         1.8390   -0.2000    8.1020 c3        1 316      0.059500
     33 C26         0.5620   -0.9940    8.4800 c         1 316      0.662500
     34 N4          0.5580   -1.6950    9.6570 n         1 316     -0.424800
     35 C28         1.7740   -1.9600   10.3990 c3        1 316      0.043000
     36 C29         2.9990   -1.1290    9.9700 c3        1 316      0.133800
     37 N3          3.0720   -0.8270    8.5520 n7        1 316     -0.801200
     38 O4         -0.4400   -0.9110    7.7300 o         1 316     -0.689500
     39 C27        -0.6100   -2.4710   10.0470 c3        1 316      0.128300
     40 C31        -0.5700   -3.9100    9.6260 ca        1 316     -0.136300
     41 C32        -0.1140   -4.8940   10.5080 ca        1 316     -0.115500
     42 C33        -0.1240   -6.2350   10.1250 ca        1 316     -0.129000
     43 C34        -0.5870   -6.5970    8.8590 ca        1 316     -0.108000
     44 C35        -1.0400   -5.6160    7.9760 ca        1 316     -0.129000
     45 C36        -1.0310   -4.2750    8.3560 ca        1 316     -0.115500
     46 H1         -1.1940   -1.1620    0.4370 ha        1 316      0.155000
     47 H3          3.0690   -1.3850    1.3190 ha        1 316      0.190000
     48 H5          0.2860    0.4000    4.1650 ha        1 316      0.189000
     49 H8          0.5000   -0.4360   -3.4620 hx        1 316      0.105700
     50 H8A         1.6320    0.0410   -2.1010 hx        1 316      0.105700
     51 H9          0.8830   -3.5450   -2.7600 hx        1 316      0.105700
     52 H9A        -0.5200   -3.5800   -1.5870 hx        1 316      0.105700
     53 H10        -1.8440   -2.0840   -3.2170 hc        1 316      0.069950
     54 H10A       -0.4770   -2.2410   -4.4010 hc        1 316      0.069950
     55 H11        -0.7230   -4.7520   -4.3400 hc        1 316      0.064200
     56 H11A       -2.1080   -4.5830   -3.1790 hc        1 316      0.064200
     57 H11B       -2.2450   -3.9160   -4.8580 hc        1 316      0.064200
     58 H12         1.9920   -2.2580   -4.1670 hc        1 316      0.069950
     59 H12A        3.0580   -2.0500   -2.7150 hc        1 316      0.069950
     60 H13         2.5480    0.0900   -4.9100 hc        1 316      0.064200
     61 H13A        3.6430    0.2770   -3.4750 hc        1 316      0.064200
     62 H13B        4.0150   -0.9590   -4.7470 hc        1 316      0.064200
     63 H14        -2.2880   -0.6370    3.5460 hc        1 316      0.080700
     64 H14A       -1.9780    1.0950    3.1070 hc        1 316      0.080700
     65 H14B       -2.6630   -0.0450    1.8730 hc        1 316      0.080700
     66 HN2         3.8030    1.5690    4.3000 hn        1 316      0.475800
     67 H16         3.9600   -0.0860    6.1440 hx        1 316      0.132700
     68 H17         1.6010   -0.9090    6.0440 h1        1 316      0.056700
     69 HO3        -0.0220    0.7810    6.7250 ho        1 316      0.485000
     70 H18         2.6190    2.6480    6.8440 hc        1 316      0.110700
     71 H18A        3.7260    1.6510    7.8800 hc        1 316      0.110700
     72 H20         3.5090    3.9910    5.0070 ha        1 316      0.158500
     73 H22         7.8130    4.5160    4.7870 ha        1 316      0.193000
     74 H24         6.1240    1.4930    7.4160 ha        1 316      0.158500
     75 H25         1.7510    0.8010    8.6290 h1        1 316      0.111700
     76 H28         1.5710   -1.7490   11.4890 h1        1 316      0.073700
     77 H28A        2.0140   -3.0610   10.3050 h1        1 316      0.073700
     78 H29         2.9990   -0.1510   10.5290 h1        1 316      0.085700
     79 H29A        3.9290   -1.6940   10.2590 h1        1 316      0.085700
     80 HN3         3.2440   -1.6680    8.0270 hn        1 316      0.364800
     81 H27        -1.5200   -1.9760    9.5980 h1        1 316      0.083700
     82 H27A       -0.6900   -2.4090   11.1720 h1        1 316      0.083700
     83 H32         0.2400   -4.6140   11.5120 ha        1 316      0.136000
     84 H33         0.2260   -7.0090   10.8250 ha        1 316      0.141000
     85 H34        -0.6030   -7.6570    8.5620 ha        1 316      0.145000
     86 H35        -1.4160   -5.9030    6.9830 ha        1 316      0.141000
     87 H36        -1.3960   -3.4970    7.6680 ha        1 316      0.136000
     88 H111       -0.3580   -1.1630   -1.4660 hn        1 316      0.445800
     89 H221        2.1330    1.5380    4.4410 hn        1 316      0.475800
@<TRIPOS>BOND
     1    1    2 ar  
     2    1    6 ar  
     3    1   46 1   
     4    2    3 ar  
     5    2    7 1   
     6    3    4 ar  
     7    3   47 1   
     8    4    5 ar  
     9    4   17 1   
    10    5    6 ar  
    11    5   48 1   
    12    6   16 1   
    13    7    8 1   
    14    7    9 2   
    15    8   10 1   
    16    8   11 1   
    17    8   88 1   
    18   10   14 1   
    19   10   49 1   
    20   10   50 1   
    21   11   12 1   
    22   11   51 1   
    23   11   52 1   
    24   12   13 1   
    25   12   53 1   
    26   12   54 1   
    27   13   55 1   
    28   13   56 1   
    29   13   57 1   
    30   14   15 1   
    31   14   58 1   
    32   14   59 1   
    33   15   60 1   
    34   15   61 1   
    35   15   62 1   
    36   16   63 1   
    37   16   64 1   
    38   16   65 1   
    39   17   18 2   
    40   17   19 1   
    41   19   20 1   
    42   19   66 1   
    43   19   89 1   
    44   20   21 1   
    45   20   23 1   
    46   20   67 1   
    47   21   22 1   
    48   21   32 1   
    49   21   68 1   
    50   22   69 1   
    51   23   24 1   
    52   23   70 1   
    53   23   71 1   
    54   24   25 ar  
    55   24   29 ar  
    56   25   26 ar  
    57   25   72 1   
    58   26   27 ar  
    59   26   30 1   
    60   27   28 ar  
    61   27   73 1   
    62   28   29 ar  
    63   28   31 1   
    64   29   74 1   
    65   32   33 1   
    66   32   37 1   
    67   32   75 1   
    68   33   34 1   
    69   33   38 2   
    70   34   35 1   
    71   34   39 1   
    72   35   36 1   
    73   35   76 1   
    74   35   77 1   
    75   36   37 1   
    76   36   78 1   
    77   36   79 1   
    78   37   80 1   
    79   39   40 1   
    80   39   81 1   
    81   39   82 1   
    82   40   41 ar  
    83   40   45 ar  
    84   41   42 ar  
    85   41   83 1   
    86   42   43 ar  
    87   42   84 1   
    88   43   44 ar  
    89   43   85 1   
    90   44   45 ar  
    91   44   86 1   
    92   45   87 1   
@<TRIPOS>SUBSTRUCTURE
     1 316         1 TEMP              0 ****  ****    0 ROOT
