@<TRIPOS>MOLECULE
316
   89    92     1     0     0
SMALL
bcc


@<TRIPOS>ATOM
      1 C1         -0.3080   -1.0200    1.3860 ca        1 316     -0.055000
      2 C2          0.9990   -1.3360    0.9920 ca        1 316     -0.184600
      3 C3          2.0860   -0.9660    1.7970 ca        1 316     -0.003000
      4 C4          1.8560   -0.2510    2.9840 ca        1 316     -0.180600
      5 C5          0.5510    0.0660    3.3740 ca        1 316     -0.049000
      6 C6         -0.5360   -0.3200    2.5750 ca        1 316     -0.041300
      7 C7          1.3100   -2.1380   -0.2080 c         1 316      0.557700
      8 N1          0.4260   -1.9490   -1.4210 n4        1 316     -0.588200
      9 O1          2.2360   -2.9320   -0.3070 o         1 316     -0.397100
     10 C8          1.1190   -1.1030   -2.4540 c3        1 316      0.108300
     11 C9         -0.0100   -3.2850   -1.9520 c3        1 316      0.108300
     12 C10        -1.0360   -3.1910   -3.0750 c3        1 316     -0.100900
     13 C11        -1.5240   -4.5790   -3.4180 c3        1 316     -0.104100
     14 C12         2.2820   -1.7680   -3.1790 c3        1 316     -0.100900
     15 C13         2.9960   -0.7380   -4.0210 c3        1 316     -0.104100
     16 C14        -1.9140    0.0020    3.0140 c3        1 316     -0.083800
     17 C15         3.0430    0.0620    3.8030 c         1 316      0.560700
     18 O2          4.0880   -0.5760    3.8270 o         1 316     -0.401100
     19 N2          3.0020    1.3020    4.6490 n4        1 316     -0.674800
     20 C16         3.1350    1.0100    6.1350 c3        1 316      0.138500
     21 C17         1.8180    0.3780    6.6540 c3        1 316      0.148100
     22 O3          0.8120    1.3350    6.3610 oh        1 316     -0.665800
     23 C18         3.4650    2.3120    6.8780 c3        1 316     -0.062100
     24 C19         4.7020    2.9570    6.3550 ca        1 316     -0.094300
     25 C20         4.5970    3.9820    5.4110 ca        1 316     -0.204500
     26 C21         5.7640    4.6150    4.9390 ca        1 316      0.184900
     27 C22         7.0310    4.2250    5.4040 ca        1 316     -0.184000
     28 C23         7.1150    3.1930    6.3530 ca        1 316      0.184900
     29 C24         5.9500    2.5540    6.8270 ca        1 316     -0.204500
     30 F1          5.6580    5.6040    4.0260 f         1 316     -0.105400
     31 F2          8.3210    2.8040    6.8160 f         1 316     -0.105400
     32 C25         1.8460    0.0080    8.1630 c3        1 316      0.079500
     33 C26         0.5970   -0.8850    8.4010 c         1 316      0.698500
     34 N4          0.6350   -1.8840    9.3360 n         1 316     -0.420800
     35 C28         1.8960   -2.3760    9.8480 c3        1 316      0.080000
     36 C29         3.0260   -1.3370    9.8070 c3        1 316      0.143800
     37 N3          3.0960   -0.6230    8.5470 n3        1 316     -0.822200
     38 O4         -0.4440   -0.5910    7.7650 o         1 316     -0.692500
     39 C27        -0.5400   -2.7040    9.5880 c3        1 316      0.129300
     40 C31        -0.5860   -3.9940    8.8230 ca        1 316     -0.132300
     41 C32         0.0820   -5.1250    9.3050 ca        1 316     -0.114000
     42 C33        -0.0090   -6.3360    8.6210 ca        1 316     -0.129500
     43 C34        -0.7670   -6.4230    7.4530 ca        1 316     -0.110000
     44 C35        -1.4310   -5.2960    6.9680 ca        1 316     -0.129500
     45 C36        -1.3390   -4.0820    7.6480 ca        1 316     -0.114000
     46 H1         -1.1830   -1.3440    0.7970 ha        1 316      0.154000
     47 H3          3.1150   -1.2560    1.5130 ha        1 316      0.191000
     48 H5          0.3360    0.5870    4.3290 ha        1 316      0.189000
     49 H8          1.4800   -0.1730   -1.9280 hx        1 316      0.105700
     50 H8A         0.3330   -0.8070   -3.2110 hx        1 316      0.105700
     51 H9          0.9110   -3.8320   -2.3090 hx        1 316      0.105700
     52 H9A        -0.4480   -3.8580   -1.0840 hx        1 316      0.105700
     53 H10        -1.9070   -2.5540   -2.7640 hc        1 316      0.069700
     54 H10A       -0.5740   -2.7220   -3.9840 hc        1 316      0.069700
     55 H11        -0.6770   -5.2320   -3.7410 hc        1 316      0.064200
     56 H11A       -2.2590   -4.5170   -4.2580 hc        1 316      0.064200
     57 H11B       -2.0290   -5.0550   -2.5430 hc        1 316      0.064200
     58 H12         1.9010   -2.5920   -3.8410 hc        1 316      0.069700
     59 H12A        3.0000   -2.2240   -2.4460 hc        1 316      0.069700
     60 H13         3.8300   -1.2310   -4.5810 hc        1 316      0.064200
     61 H13A        3.4300    0.0710   -3.3860 hc        1 316      0.064200
     62 H13B        2.3020   -0.2760   -4.7640 hc        1 316      0.064200
     63 H14        -2.6770   -0.3770    2.2900 hc        1 316      0.081033
     64 H14A       -2.1200   -0.4610    4.0140 hc        1 316      0.081033
     65 H14B       -2.0420    1.1100    3.1120 hc        1 316      0.081033
     66 HN2         2.1220    1.8130    4.5030 hn        1 316      0.475300
     67 H16         3.9830    0.2680    6.2360 hx        1 316      0.135700
     68 H17         1.6060   -0.5640    6.0660 h1        1 316      0.062700
     69 HO3         0.0140    1.1380    6.8820 ho        1 316      0.486000
     70 H18         3.5990    2.0640    7.9660 hc        1 316      0.101200
     71 H18A        2.5890    3.0160    6.8150 hc        1 316      0.101200
     72 H20         3.6160    4.3540    5.0800 ha        1 316      0.156000
     73 H22         7.9420    4.7310    5.0430 ha        1 316      0.194000
     74 H24         6.0440    1.7580    7.5820 ha        1 316      0.156000
     75 H25         1.6410    0.9600    8.7480 h1        1 316      0.074700
     76 H28         1.7450   -2.6860   10.9220 h1        1 316      0.073700
     77 H28A        2.2000   -3.2920    9.2610 h1        1 316      0.073700
     78 H29         2.9040   -0.6340   10.6830 h1        1 316      0.067200
     79 H29A        4.0040   -1.8830    9.9340 h1        1 316      0.067200
     80 HN3         3.8270    0.0650    8.5920 hn        1 316      0.367800
     81 H27        -0.5550   -2.9280   10.6950 h1        1 316      0.084200
     82 H27A       -1.4520   -2.0870    9.3390 h1        1 316      0.084200
     83 H32         0.6670   -5.0610   10.2360 ha        1 316      0.135000
     84 H33         0.5090   -7.2260    9.0100 ha        1 316      0.140000
     85 H34        -0.8480   -7.3830    6.9210 ha        1 316      0.144000
     86 H35        -2.0400   -5.3690    6.0550 ha        1 316      0.140000
     87 H36        -1.8700   -3.1940    7.2730 ha        1 316      0.135000
     88 H111       -0.4160   -1.4330   -1.1370 hn        1 316      0.445800
     89 H221        3.7920    1.9150    4.3820 hn        1 316      0.475300
@<TRIPOS>BOND
     1    1    2 ar  
     2    1    6 ar  
     3    1   46 1   
     4    2    3 ar  
     5    2    7 1   
     6    3    4 ar  
     7    3   47 1   
     8    4    5 ar  
     9    4   17 1   
    10    5    6 ar  
    11    5   48 1   
    12    6   16 1   
    13    7    8 1   
    14    7    9 2   
    15    8   10 1   
    16    8   11 1   
    17    8   88 1   
    18   10   14 1   
    19   10   49 1   
    20   10   50 1   
    21   11   12 1   
    22   11   51 1   
    23   11   52 1   
    24   12   13 1   
    25   12   53 1   
    26   12   54 1   
    27   13   55 1   
    28   13   56 1   
    29   13   57 1   
    30   14   15 1   
    31   14   58 1   
    32   14   59 1   
    33   15   60 1   
    34   15   61 1   
    35   15   62 1   
    36   16   63 1   
    37   16   64 1   
    38   16   65 1   
    39   17   18 2   
    40   17   19 1   
    41   19   20 1   
    42   19   66 1   
    43   19   89 1   
    44   20   21 1   
    45   20   23 1   
    46   20   67 1   
    47   21   22 1   
    48   21   32 1   
    49   21   68 1   
    50   22   69 1   
    51   23   24 1   
    52   23   70 1   
    53   23   71 1   
    54   24   25 ar  
    55   24   29 ar  
    56   25   26 ar  
    57   25   72 1   
    58   26   27 ar  
    59   26   30 1   
    60   27   28 ar  
    61   27   73 1   
    62   28   29 ar  
    63   28   31 1   
    64   29   74 1   
    65   32   33 1   
    66   32   37 1   
    67   32   75 1   
    68   33   34 1   
    69   33   38 2   
    70   34   35 1   
    71   34   39 1   
    72   35   36 1   
    73   35   76 1   
    74   35   77 1   
    75   36   37 1   
    76   36   78 1   
    77   36   79 1   
    78   37   80 1   
    79   39   40 1   
    80   39   81 1   
    81   39   82 1   
    82   40   41 ar  
    83   40   45 ar  
    84   41   42 ar  
    85   41   83 1   
    86   42   43 ar  
    87   42   84 1   
    88   43   44 ar  
    89   43   85 1   
    90   44   45 ar  
    91   44   86 1   
    92   45   87 1   
@<TRIPOS>SUBSTRUCTURE
     1 316         1 TEMP              0 ****  ****    0 ROOT
