@<TRIPOS>MOLECULE
317
   56    59     1     0     0
SMALL
bcc


@<TRIPOS>ATOM
      1 C1          1.9530   -0.2170    0.4590 c3        1 317     -0.094000
      2 C2          0.4580   -0.0580    0.0940 c3        1 317      0.178700
      3 C3         -0.1580    1.2370    0.5720 c2        1 317     -0.041700
      4 C4         -1.0610    1.3060    1.5790 c2        1 317     -0.019400
      5 F5          0.2650    2.3540   -0.0780 f         1 317     -0.156500
      6 N6          0.2330   -0.1950   -1.3940 n4        1 317     -0.841600
      7 C7          2.1320   -0.1860    1.9760 c3        1 317     -0.053400
      8 C8         -1.6470    2.5880    2.0680 c3        1 317     -0.065700
      9 C9         -2.5820    2.2360    3.2200 c3        1 317     -0.081400
     10 C10        -2.6440    0.7160    3.3140 c3        1 317     -0.081400
     11 C11        -1.5990    0.1510    2.3540 c3        1 317     -0.065700
     12 C18         1.8090   -1.5110    2.5880 cx        1 317     -0.174700
     13 C19         2.4530   -1.8770    3.9030 cx        1 317     -0.111900
     14 C20         2.8640   -2.5880    2.6520 cx        1 317     -0.111900
     15 C26         2.7980    0.7840   -0.2390 cc        1 317      0.469700
     16 N27         2.7700    1.2160   -1.5000 nd        1 317     -0.726000
     17 C28         3.8670    2.1210   -1.5830 cd        1 317      0.606500
     18 N29         4.5060    2.1950   -0.3830 nc        1 317     -0.312300
     19 O30         3.8790    1.3960    0.4470 os        1 317     -0.097100
     20 C31         4.2120    2.8640   -2.7960 ca        1 317     -0.090500
     21 C32         4.4520    4.2400   -2.6990 ca        1 317     -0.105000
     22 C33         4.7570    4.9760   -3.8410 ca        1 317     -0.024000
     23 C34         4.8320    4.3580   -5.0930 ca        1 317     -0.326500
     24 C35         4.6030    2.9830   -5.1860 ca        1 317     -0.023000
     25 C36         4.2980    2.2320   -4.0470 ca        1 317      0.023400
     26 S40         5.1430    5.2750   -6.4940 sy        1 317      1.391300
     27 O41         4.6130    4.5940   -7.5940 o         1 317     -0.642300
     28 O42         4.7380    6.5920   -6.2620 o         1 317     -0.642300
     29 C43         6.8230    5.1870   -6.5210 c3        1 317     -0.374300
     30 CL47        4.0600    0.5590   -4.2190 cl        1 317     -0.076400
     31 H1          2.3040   -1.2350    0.1010 hc        1 317      0.102700
     32 H2         -0.0880   -0.9210    0.5900 hx        1 317      0.122700
     33 HN6         0.4000    0.7130   -1.8550 hn        1 317      0.468467
     34 HN6A        0.8780   -0.8840   -1.7900 hn        1 317      0.468467
     35 H7          1.4790    0.6120    2.4210 hc        1 317      0.086200
     36 H7A         3.1980    0.0880    2.2110 hc        1 317      0.086200
     37 H8         -2.1990    3.0990    1.2350 hc        1 317      0.074950
     38 H8A        -0.8330    3.2860    2.3980 hc        1 317      0.074950
     39 H9         -2.1980    2.6730    4.1770 hc        1 317      0.065700
     40 H9A        -3.6000    2.6640    3.0450 hc        1 317      0.065700
     41 H10        -2.4400    0.3740    4.3590 hc        1 317      0.065700
     42 H10A       -3.6630    0.3470    3.0350 hc        1 317      0.065700
     43 H11        -0.7690   -0.3480    2.9240 hc        1 317      0.074950
     44 H11A       -2.0570   -0.6140    1.6760 hc        1 317      0.074950
     45 H18         0.7590   -1.8270    2.4280 hc        1 317      0.065700
     46 H19         3.1550   -1.1620    4.3710 hc        1 317      0.085950
     47 H19A        1.8490   -2.4130    4.6560 hc        1 317      0.085950
     48 H20         3.8640   -2.3850    2.2250 hc        1 317      0.085950
     49 H20A        2.5600   -3.6400    2.5060 hc        1 317      0.085950
     50 H32         4.3970    4.7430   -1.7190 ha        1 317      0.164000
     51 H33         4.9210    6.0670   -3.7620 ha        1 317      0.174000
     52 H35         4.6470    2.4910   -6.1770 ha        1 317      0.182000
     53 H43         7.3090    5.6190   -5.6110 h1        1 317      0.125367
     54 H43A        7.2440    5.7590   -7.3900 h1        1 317      0.125367
     55 H43B        7.2160    4.1460   -6.6250 h1        1 317      0.125367
     56 H63        -0.7330   -0.4790   -1.5730 hn        1 317      0.468467
@<TRIPOS>BOND
     1    1    2 1   
     2    1    7 1   
     3    1   15 1   
     4    1   31 1   
     5    2    3 1   
     6    2    6 1   
     7    2   32 1   
     8    3    4 2   
     9    3    5 1   
    10    4    8 1   
    11    4   11 1   
    12    6   33 1   
    13    6   34 1   
    14    6   56 1   
    15    7   12 1   
    16    7   35 1   
    17    7   36 1   
    18    8    9 1   
    19    8   37 1   
    20    8   38 1   
    21    9   10 1   
    22    9   39 1   
    23    9   40 1   
    24   10   11 1   
    25   10   41 1   
    26   10   42 1   
    27   11   43 1   
    28   11   44 1   
    29   12   13 1   
    30   12   14 1   
    31   12   45 1   
    32   13   14 1   
    33   13   46 1   
    34   13   47 1   
    35   14   48 1   
    36   14   49 1   
    37   15   16 2   
    38   15   19 1   
    39   16   17 1   
    40   17   18 2   
    41   17   20 1   
    42   18   19 1   
    43   20   21 ar  
    44   20   25 ar  
    45   21   22 ar  
    46   21   50 1   
    47   22   23 ar  
    48   22   51 1   
    49   23   24 ar  
    50   23   26 1   
    51   24   25 ar  
    52   24   52 1   
    53   25   30 1   
    54   26   27 2   
    55   26   28 2   
    56   26   29 1   
    57   29   53 1   
    58   29   54 1   
    59   29   55 1   
@<TRIPOS>SUBSTRUCTURE
     1 317         1 TEMP              0 ****  ****    0 ROOT
