@<TRIPOS>MOLECULE
317
   55    58     1     0     0
SMALL
bcc


@<TRIPOS>ATOM
      1 C1          2.7220   -1.4790    0.2140 c3        1 317     -0.085000
      2 C2          3.3060   -0.4960    1.2640 c3        1 317      0.211700
      3 C3          3.4000    0.9190    0.7040 c2        1 317      0.025300
      4 C4          4.5570    1.5110    0.3360 c2        1 317     -0.129400
      5 F5          2.2210    1.5920    0.6310 f         1 317     -0.176500
      6 N6          2.6150   -0.5910    2.5330 n3        1 317     -0.904800
      7 C7          3.6930   -1.6990   -0.9420 c3        1 317     -0.058400
      8 C8          4.6450    2.9010   -0.2010 c3        1 317     -0.043700
      9 C9          6.1250    3.1990   -0.4200 c3        1 317     -0.077400
     10 C10         6.8960    1.9110   -0.1530 c3        1 317     -0.077400
     11 C11         5.9110    0.8920    0.4150 c3        1 317     -0.043700
     12 C18         4.7920   -2.6430   -0.5710 cx        1 317     -0.135700
     13 C19         5.5140   -3.3840   -1.6660 cx        1 317     -0.127900
     14 C20         4.5970   -4.1270   -0.7430 cx        1 317     -0.127900
     15 C26         1.3970   -1.0180   -0.2760 cc        1 317      0.511700
     16 N27         0.2230   -0.8530    0.3300 nd        1 317     -0.661000
     17 C28        -0.6430   -0.4030   -0.7100 cd        1 317      0.564500
     18 N29         0.0280   -0.3150   -1.8910 nc        1 317     -0.347300
     19 O30         1.2640   -0.6820   -1.6620 os        1 317     -0.134100
     20 C31        -2.0510   -0.0660   -0.5010 ca        1 317     -0.052500
     21 C32        -2.5300    1.1570   -0.9900 ca        1 317     -0.114000
     22 C33        -3.8630    1.5090   -0.8050 ca        1 317     -0.030000
     23 C34        -4.7460    0.6540   -0.1350 ca        1 317     -0.358500
     24 C35        -4.2630   -0.5610    0.3590 ca        1 317     -0.026000
     25 C36        -2.9270   -0.9310    0.1750 ca        1 317      0.022400
     26 S40        -6.3530    1.0980    0.1020 sy        1 317      1.396300
     27 O41        -6.8690    0.4440    1.2270 o         1 317     -0.652300
     28 O42        -6.4730    2.4930    0.0430 o         1 317     -0.652300
     29 C43        -7.0380    0.4260   -1.2900 c3        1 317     -0.361300
     30 CL47       -2.4130   -2.4330    0.7670 cl        1 317     -0.051400
     31 H1          2.5540   -2.4740    0.7290 hc        1 317      0.111700
     32 H2          4.3690   -0.8420    1.4590 h1        1 317      0.081700
     33 HN6         3.0140    0.0510    3.1900 hn        1 317      0.367800
     34 HN6A        1.6370   -0.3990    2.4400 hn        1 317      0.367800
     35 H7          3.1290   -2.1100   -1.8230 hc        1 317      0.065700
     36 H7A         4.1280   -0.7130   -1.2580 hc        1 317      0.065700
     37 H8          4.0710    2.9780   -1.1600 hc        1 317      0.058450
     38 H8A         4.1860    3.6280    0.5190 hc        1 317      0.058450
     39 H9          6.3030    3.5580   -1.4640 hc        1 317      0.045950
     40 H9A         6.4640    4.0070    0.2740 hc        1 317      0.045950
     41 H10         7.3470    1.5230   -1.1010 hc        1 317      0.045950
     42 H10A        7.7320    2.0910    0.5660 hc        1 317      0.045950
     43 H11         6.1650    0.6500    1.4810 hc        1 317      0.058450
     44 H11A        5.9490   -0.0670   -0.1650 hc        1 317      0.058450
     45 H18         5.3880   -2.3000    0.2990 hc        1 317      0.078700
     46 H19         5.2050   -3.2230   -2.7150 hc        1 317      0.073950
     47 H19A        6.6050   -3.5320   -1.5770 hc        1 317      0.073950
     48 H20         5.0280   -4.8100    0.0100 hc        1 317      0.073950
     49 H20A        3.6320   -4.4980   -1.1310 hc        1 317      0.073950
     50 H32        -1.8470    1.8410   -1.5180 ha        1 317      0.161000
     51 H33        -4.2300    2.4830   -1.1760 ha        1 317      0.163000
     52 H35        -4.9470   -1.2300    0.9150 ha        1 317      0.172000
     53 H43        -6.9140   -0.6830   -1.3510 h1        1 317      0.116367
     54 H43A       -8.1410    0.6180   -1.3290 h1        1 317      0.116367
     55 H43B       -6.6170    0.8460   -2.2360 h1        1 317      0.116367
@<TRIPOS>BOND
     1    1    2 1   
     2    1    7 1   
     3    1   15 1   
     4    1   31 1   
     5    2    3 1   
     6    2    6 1   
     7    2   32 1   
     8    3    4 2   
     9    3    5 1   
    10    4    8 1   
    11    4   11 1   
    12    6   33 1   
    13    6   34 1   
    14    7   12 1   
    15    7   35 1   
    16    7   36 1   
    17    8    9 1   
    18    8   37 1   
    19    8   38 1   
    20    9   10 1   
    21    9   39 1   
    22    9   40 1   
    23   10   11 1   
    24   10   41 1   
    25   10   42 1   
    26   11   43 1   
    27   11   44 1   
    28   12   13 1   
    29   12   14 1   
    30   12   45 1   
    31   13   14 1   
    32   13   46 1   
    33   13   47 1   
    34   14   48 1   
    35   14   49 1   
    36   15   16 2   
    37   15   19 1   
    38   16   17 1   
    39   17   18 2   
    40   17   20 1   
    41   18   19 1   
    42   20   21 ar  
    43   20   25 ar  
    44   21   22 ar  
    45   21   50 1   
    46   22   23 ar  
    47   22   51 1   
    48   23   24 ar  
    49   23   26 1   
    50   24   25 ar  
    51   24   52 1   
    52   25   30 1   
    53   26   27 2   
    54   26   28 2   
    55   26   29 1   
    56   29   53 1   
    57   29   54 1   
    58   29   55 1   
@<TRIPOS>SUBSTRUCTURE
     1 317         1 TEMP              0 ****  ****    0 ROOT
