@<TRIPOS>MOLECULE
317
   56    59     1     0     0
SMALL
bcc


@<TRIPOS>ATOM
      1 C1          1.9770   -0.2050    0.4800 c3        1 317     -0.094000
      2 C2          0.4830   -0.0810    0.0970 c3        1 317      0.178700
      3 C3         -0.1650    1.2070    0.5530 c2        1 317     -0.041700
      4 C4         -1.0790    1.2700    1.5490 c2        1 317     -0.019400
      5 F5          0.2430    2.3250   -0.1070 f         1 317     -0.156500
      6 N6          0.2760   -0.2410   -1.3910 nz        1 317     -0.841600
      7 C7          2.1380   -0.1520    1.9990 c3        1 317     -0.053400
      8 C8         -1.6970    2.5460    2.0160 c3        1 317     -0.065700
      9 C9         -2.6370    2.1890    3.1620 c3        1 317     -0.081400
     10 C10        -2.6700    0.6690    3.2740 c3        1 317     -0.081400
     11 C11        -1.6030    0.1140    2.3320 c3        1 317     -0.065700
     12 C18         1.8350   -1.4760    2.6240 cx        1 317     -0.174700
     13 C19         2.4720   -1.8130    3.9490 cx        1 317     -0.111900
     14 C20         2.9110   -2.5310    2.7120 cx        1 317     -0.111900
     15 C26         2.8090    0.8040   -0.2210 cc        1 317      0.469700
     16 N27         2.7850    1.2200   -1.4870 nd        1 317     -0.726000
     17 C28         3.8650    2.1460   -1.5700 cd        1 317      0.606500
     18 N29         4.4890    2.2470   -0.3640 nc        1 317     -0.312300
     19 O30         3.8690    1.4460    0.4690 os        1 317     -0.097100
     20 C31         4.2090    2.8800   -2.7880 ca        1 317     -0.090500
     21 C32         4.4190    4.2620   -2.7060 ca        1 317     -0.105000
     22 C33         4.7210    4.9900   -3.8540 ca        1 317     -0.024000
     23 C34         4.8240    4.3580   -5.0970 ca        1 317     -0.326500
     24 C35         4.6240    2.9780   -5.1750 ca        1 317     -0.023000
     25 C36         4.3220    2.2350   -4.0300 ca        1 317      0.023400
     26 S40         5.1310    5.2630   -6.5060 sy        1 317      1.391300
     27 O41         4.6290    4.5580   -7.6040 o         1 317     -0.642300
     28 O42         4.6960    6.5750   -6.2960 o         1 317     -0.642300
     29 C43         6.8130    5.2110   -6.5130 c3        1 317     -0.374300
     30 Cl47        4.1200    0.5550   -4.1830 cl        1 317     -0.076400
     31 H1          2.3510   -1.2210    0.1390 hc        1 317      0.102700
     32 H2         -0.0510   -0.9490    0.5980 hx        1 317      0.122700
     33 HN6        -0.6810   -0.5460   -1.5770 hn        1 317      0.468467
     34 HN6A        0.4300    0.6650   -1.8610 hn        1 317      0.468467
     35 H7          3.1960    0.1460    2.2420 hc        1 317      0.086200
     36 H7A         1.4640    0.6380    2.4270 hc        1 317      0.086200
     37 H8         -0.9010    3.2640    2.3460 hc        1 317      0.074950
     38 H8A        -2.2490    3.0350    1.1700 hc        1 317      0.074950
     39 H9         -2.2730    2.6450    4.1170 hc        1 317      0.065700
     40 H9A        -3.6620    2.5950    2.9700 hc        1 317      0.065700
     41 H10        -3.6780    0.2770    2.9880 hc        1 317      0.065700
     42 H10A       -2.4700    0.3440    4.3250 hc        1 317      0.065700
     43 H11        -2.0380   -0.6690    1.6590 hc        1 317      0.074950
     44 H11A       -0.7700   -0.3610    2.9170 hc        1 317      0.074950
     45 H18         0.7930   -1.8150    2.4560 hc        1 317      0.065700
     46 H19         1.8700   -2.3520    4.7030 hc        1 317      0.085950
     47 H19A        3.1540   -1.0790    4.4170 hc        1 317      0.085950
     48 H20         3.9100   -2.3130    2.2930 hc        1 317      0.085950
     49 H20A        2.6290   -3.5900    2.5750 hc        1 317      0.085950
     50 H32         4.3430    4.7760   -1.7340 ha        1 317      0.164000
     51 H33         4.8620    6.0850   -3.7870 ha        1 317      0.174000
     52 H35         4.6900    2.4740   -6.1590 ha        1 317      0.182000
     53 H43         7.2290    4.1770   -6.5990 h1        1 317      0.125367
     54 H43A        7.2320    5.7800   -7.3850 h1        1 317      0.125367
     55 H43B        7.2800    5.6650   -5.6040 h1        1 317      0.125367
     56 H63         0.9400   -0.9220   -1.7720 hn        1 317      0.468467
@<TRIPOS>BOND
     1    1    2 1   
     2    1    7 1   
     3    1   15 1   
     4    1   31 1   
     5    2    3 1   
     6    2    6 1   
     7    2   32 1   
     8    3    4 2   
     9    3    5 1   
    10    4    8 1   
    11    4   11 1   
    12    6   33 1   
    13    6   34 1   
    14    6   56 1   
    15    7   12 1   
    16    7   35 1   
    17    7   36 1   
    18    8    9 1   
    19    8   37 1   
    20    8   38 1   
    21    9   10 1   
    22    9   39 1   
    23    9   40 1   
    24   10   11 1   
    25   10   41 1   
    26   10   42 1   
    27   11   43 1   
    28   11   44 1   
    29   12   13 1   
    30   12   14 1   
    31   12   45 1   
    32   13   14 1   
    33   13   46 1   
    34   13   47 1   
    35   14   48 1   
    36   14   49 1   
    37   15   16 2   
    38   15   19 1   
    39   16   17 1   
    40   17   18 2   
    41   17   20 1   
    42   18   19 1   
    43   20   21 ar  
    44   20   25 ar  
    45   21   22 ar  
    46   21   50 1   
    47   22   23 ar  
    48   22   51 1   
    49   23   24 ar  
    50   23   26 1   
    51   24   25 ar  
    52   24   52 1   
    53   25   30 1   
    54   26   27 2   
    55   26   28 2   
    56   26   29 1   
    57   29   53 1   
    58   29   54 1   
    59   29   55 1   
@<TRIPOS>SUBSTRUCTURE
     1 317         1 TEMP              0 ****  ****    0 ROOT
