@<TRIPOS>MOLECULE
318
   84    83     1     0     0
SMALL
bcc


@<TRIPOS>ATOM
      1 F1         -5.8990    4.2530    0.1910 f         1 318     -0.100000
      2 F2         -4.1740    4.0380    4.6020 f         1 318     -0.100000
      3 N1         -0.2650    1.6050    1.1390 n         1 318     -0.368000
      4 C1         -0.7550    2.5090    0.1530 c3        1 318      0.037000
      5 C2          0.3210    2.7110   -0.9280 c3        1 318      0.015000
      6 O1          1.2040    3.6800   -0.5110 oh        1 318     -0.336000
      7 C3         -0.3420    3.1560   -2.2630 c3        1 318     -0.104000
      8 N2         -0.7040    1.8230   -3.1770 n3        1 318     -0.275000
      9 C4         -0.7470    2.1680   -4.2660 c3        1 318      0.015000
     10 N3          0.1150    3.3050   -4.3520 n         1 318     -0.325000
     11 C5          0.4470    3.6960   -2.9210 c2        1 318      0.276000
     12 C6         -1.0640    3.8400    0.8040 c3        1 318     -0.129000
     13 C7         -0.8640    0.2980    1.2900 c2        1 318      0.351000
     14 O2          1.1710    4.6280   -2.5720 o         1 318     -0.353000
     15 C8          0.7970    3.8040   -5.5890 c3        1 318      0.020000
     16 C9         -0.1050    4.8600   -6.2900 c2        1 318     -0.124000
     17 C10         0.1830    6.2240   -6.1560 c2        1 318     -0.113000
     18 C11        -0.5060    7.1640   -6.9320 c1        1 318     -0.130000
     19 C12        -1.4740    6.7440   -7.8330 c1        1 318     -0.127000
     20 C13        -1.7620    5.3800   -7.9670 c1        1 318     -0.127000
     21 C14        -1.0770    4.4420   -7.1950 c1        1 318     -0.118000
     22 C15        -2.4930    3.8300    1.3620 ca        1 318     -0.019000
     23 C16        -2.6970    3.8560    2.7500 ca        1 318     -0.182000
     24 C17        -3.9870    3.9670    3.2660 ca        1 318      0.120500
     25 C18        -5.0760    4.0510    2.4060 ca        1 318     -0.210000
     26 C19        -4.8750    4.0250    1.0150 ca        1 318      0.120500
     27 C20        -3.5780    3.9140    0.4990 ca        1 318     -0.182000
     28 O3         -1.9600    0.0820    0.8440 o         1 318     -0.390000
     29 C21        -0.1210   -0.8110    2.1120 c2        1 318     -0.121000
     30 C22         0.1260   -2.0820    1.5290 c2        1 318     -0.057000
     31 C23         0.8010   -3.0600    2.2530 c1        1 318     -0.106000
     32 C24         1.2360   -2.7900    3.5580 c1        1 318     -0.081000
     33 C25         0.9910   -1.5290    4.1380 c1        1 318     -0.076000
     34 C26         0.3130   -0.5440    3.4120 c1        1 318     -0.093000
     35 C27         1.5720   -1.1960    5.5580 c3        1 318     -0.183000
     36 C28         1.2130   -4.3940    1.5620 c2        1 318      0.345000
     37 O4          0.9450   -4.5810    0.3840 o         1 318     -0.354000
     38 N4          1.9020   -5.4480    2.3420 n         1 318     -0.330000
     39 C29         1.1930   -6.1410    3.4240 c3        1 318     -0.024500
     40 C30         0.2620   -7.2260    2.8230 c3        1 318     -0.180500
     41 C31        -0.0950   -8.2440    3.9060 c3        1 318     -0.210500
     42 C32         3.2550   -5.8350    2.0050 c3        1 318     -0.024500
     43 C33         3.4000   -7.3860    2.1430 c3        1 318     -0.180500
     44 C34         4.1930   -7.9350    0.9610 c3        1 318     -0.210500
     45 HN1         0.4360    1.8560    1.6820 hn        1 318      0.234000
     46 H1         -1.5610    2.1460   -0.2490 h1        1 318      0.127000
     47 H2          0.7970    1.8790   -1.0680 h1        1 318      0.095000
     48 HO1         2.0410    3.3750   -0.5860 ho        1 318      0.235000
     49 H3         -1.0810    3.6820   -1.9370 h1        1 318      0.141000
     50 HN2        -0.0200    1.1820   -3.0810 hn        1 318      0.191000
     51 H4         -0.4310    1.4590   -4.8550 h2        1 318      0.101500
     52 H4A        -1.6700    2.4230   -4.5050 h2        1 318      0.101500
     53 H6         -0.9740    4.5620    0.1350 hc        1 318      0.117500
     54 H6A        -0.4350    3.9940    1.5330 hc        1 318      0.117500
     55 H8          1.6400    4.2080   -5.3520 h1        1 318      0.110500
     56 H8A         0.9580    3.0400   -6.2110 h1        1 318      0.110500
     57 H10         0.8520    6.5140   -5.5330 ha        1 318      0.151000
     58 H11        -0.3030    8.1270   -6.8380 ha        1 318      0.135000
     59 H12        -1.9560    7.4000   -8.3750 ha        1 318      0.133000
     60 H13        -2.4320    5.0900   -8.5910 ha        1 318      0.133000
     61 H14        -1.2750    3.5050   -7.2880 ha        1 318      0.130000
     62 H16        -1.9220    3.7790    3.3650 ha        1 318      0.155500
     63 H18        -5.9570    4.2270    2.7620 ha        1 318      0.166000
     64 H20        -3.4300    3.9740   -0.4640 ha        1 318      0.155500
     65 H22        -0.1840   -2.2750    0.5970 ha        1 318      0.161000
     66 H24         1.7310   -3.5080    4.0890 ha        1 318      0.148000
     67 H26         0.1400    0.3430    3.8210 ha        1 318      0.143000
     68 H27         1.1890   -0.3230    5.8830 hc        1 318      0.089667
     69 H27A        2.5500   -1.1250    5.5030 hc        1 318      0.089667
     70 H27B        1.3280   -1.9190    6.1930 hc        1 318      0.089667
     71 H29         0.6510   -5.4880    3.9340 h1        1 318      0.095250
     72 H29A        1.8530   -6.5700    4.0310 h1        1 318      0.095250
     73 H30        -0.5470   -6.8110    2.4900 hc        1 318      0.087000
     74 H30A        0.7240   -7.6840    2.0840 hc        1 318      0.087000
     75 H31        -0.6360   -7.8110    4.5960 hc        1 318      0.075667
     76 H31A       -0.6030   -8.9810    3.5070 hc        1 318      0.075667
     77 H31B        0.7060   -8.5850    4.2970 hc        1 318      0.075667
     78 H32         3.4510   -5.5670    1.0830 h1        1 318      0.095250
     79 H32A        3.8750   -5.3980    2.6060 h1        1 318      0.095250
     80 H33         3.8720   -7.5970    2.9810 hc        1 318      0.087000
     81 H33A        2.5190   -7.7910    2.1580 hc        1 318      0.087000
     82 H34         3.6970   -7.7700    0.1250 hc        1 318      0.075667
     83 H34A        4.3270   -8.9160    1.0800 hc        1 318      0.075667
     84 H34B        5.0620   -7.4910    0.9180 hc        1 318      0.075667
@<TRIPOS>BOND
     1    1   26 1   
     2    2   24 1   
     3    3    4 1   
     4    3   13 1   
     5    3   45 1   
     6    4    5 1   
     7    4   12 1   
     8    4   46 1   
     9    5    6 1   
    10    5    7 1   
    11    5   47 1   
    12    6   48 1   
    13    7    8 1   
    14    7   11 1   
    15    7   49 1   
    16    8    9 1   
    17    8   50 1   
    18    9   10 1   
    19    9   51 1   
    20    9   52 1   
    21   10   11 1   
    22   10   15 1   
    23   11   14 1   
    24   12   22 1   
    25   12   53 1   
    26   12   54 1   
    27   13   28 1   
    28   13   29 1   
    29   15   16 1   
    30   15   55 1   
    31   15   56 1   
    32   16   17 1   
    33   16   21 1   
    34   17   18 1   
    35   17   57 1   
    36   18   58 1   
    37   19   20 1   
    38   19   59 1   
    39   20   60 1   
    40   21   61 1   
    41   22   23 1   
    42   22   27 1   
    43   23   24 1   
    44   23   62 1   
    45   24   25 1   
    46   25   26 1   
    47   25   63 1   
    48   26   27 1   
    49   27   64 1   
    50   29   30 1   
    51   29   34 1   
    52   30   31 1   
    53   30   65 1   
    54   31   36 1   
    55   32   33 1   
    56   32   66 1   
    57   33   35 1   
    58   34   67 1   
    59   35   68 1   
    60   35   69 1   
    61   35   70 1   
    62   36   37 1   
    63   36   38 1   
    64   38   39 1   
    65   38   42 1   
    66   39   40 1   
    67   39   71 1   
    68   39   72 1   
    69   40   41 1   
    70   40   73 1   
    71   40   74 1   
    72   41   75 1   
    73   41   76 1   
    74   41   77 1   
    75   42   43 1   
    76   42   78 1   
    77   42   79 1   
    78   43   44 1   
    79   43   80 1   
    80   43   81 1   
    81   44   82 1   
    82   44   83 1   
    83   44   84 1   
@<TRIPOS>SUBSTRUCTURE
     1 318         1 TEMP              0 ****  ****    0 ROOT
