@<TRIPOS>MOLECULE
318
   86    79     1     0     0
SMALL
bcc


@<TRIPOS>ATOM
      1 F1         46.7730  132.2240  -87.7640 f         1 318     -0.074000
      2 N1         50.9130  133.3770  -83.6820 n4        1 318     -0.113000
      3 C1         51.7340  133.0770  -84.9120 c3        1 318     -0.091000
      4 C2         53.1700  133.6370  -84.7620 c3        1 318     -0.039000
      5 O1         53.1280  134.9460  -84.2440 oh        1 318     -0.376000
      6 C3         53.9620  134.3590  -88.4210 c1        1 318     -0.632000
      7 N2         53.6200  136.5550  -90.4880 n3        1 318     -0.247000
      8 C4         53.7710  137.7270  -89.9290 c1        1 318     -0.080000
      9 N3         54.1400  137.8950  -88.5130 n4        1 318     -0.101000
     10 C5         53.4430  135.1310  -87.6410 c1        1 318      0.048000
     11 C6         51.0890  133.6690  -86.1740 c3        1 318     -0.102000
     12 O2         52.9040  136.0170  -86.9270 o         1 318     -0.563000
     13 C8         54.7250  139.1570  -88.1440 c1        1 318      0.070000
     14 C9         54.6480  140.3590  -88.8680 c2        1 318     -0.313000
     15 C10        50.8120  138.3130  -87.4290 c1        1 318     -0.227250
     16 C11        50.3300  139.3660  -87.7310 c1        1 318     -0.227250
     17 C12        54.0700  142.9460  -91.2140 c1        1 318     -0.044000
     18 C13        54.0620  141.8720  -90.6750 c1        1 318     -0.232000
     19 C14        54.0450  140.6150  -90.0670 c2        1 318      0.190000
     20 C15        49.7210  133.2870  -86.3230 c1        1 318     -0.147000
     21 C16        47.5420  134.0370  -83.8250 c2        1 318     -0.332000
     22 C17        46.6910  133.0320  -84.1250 c2        1 318      0.142000
     23 C18        46.3500  132.6050  -85.4800 c2        1 318     -0.189000
     24 C19        47.2030  132.6130  -86.5370 c2        1 318      0.203000
     25 C20        48.5670  132.9860  -86.4420 c1        1 318     -0.123000
     26 O3         50.3530  131.4200  -82.5970 o         1 318     -0.191000
     27 C21        52.2370  132.5630  -81.6510 c2        1 318     -0.274000
     28 C22        52.8970  133.7130  -81.3970 c2        1 318      0.029000
     29 C23        53.9980  133.7800  -80.4640 c2        1 318     -0.221000
     30 C24        55.0620  132.9540  -80.4720 c2        1 318     -0.008000
     31 C25        55.2790  131.8980  -81.4430 c2        1 318     -0.369000
     32 C26        54.3370  131.3980  -82.2380 c1        1 318      0.173000
     33 C27        56.6690  131.3550  -81.5280 c3        1 318     -0.151000
     34 C28      -161.1960 -489.2590  299.8230 c1        1 318      0.327000
     35 O4       -161.0590 -488.8030  301.0280 os        1 318     -0.080000
     36 N4       -161.1150 -489.5600  298.6940 n2        1 318     -0.091000
     37 C29      -162.5580 -488.7230  303.7840 c3        1 318     -0.228000
     38 C30      -161.8030 -487.7010  302.9750 c3        1 318     -0.181000
     39 C31      -162.0870 -487.8150  301.4960 c3        1 318      0.001000
     40 C32      -161.2400 -490.3250  297.5130 c3        1 318     -0.041000
     41 C33        57.1870  133.2160  -77.5080 c1        1 318     -0.227250
     42 C34        57.7120  134.0510  -78.1840 c1        1 318     -0.227250
     43 HN1        49.9110  133.3710  -83.9360 hn        1 318      0.259500
     44 H1         51.7840  131.9520  -85.0090 hx        1 318      0.157000
     45 H2         53.7370  133.0190  -84.0100 h1        1 318      0.134000
     46 HO1        53.1860  135.5720  -84.9890 ho        1 318      0.270000
     47 H3         53.6740  133.5930  -85.7660 h1        1 318      0.134000
     48 HN2        53.7140  135.6450  -90.0450 hn        1 318      0.262000
     49 H4         54.4270  133.5780  -88.9540 ha        1 318      0.224000
     50 H4A        53.3710  136.5510  -91.4580 hn        1 318      0.262000
     51 H6         51.1930  134.7970  -86.1690 hc        1 318      0.171000
     52 H6A        51.6980  133.3150  -87.0610 hc        1 318      0.171000
     53 H8         53.2790  137.7710  -87.9110 hn        1 318      0.282500
     54 H8A        54.7940  137.1750  -88.1510 hn        1 318      0.282500
     55 H10        51.2180  137.3680  -87.1460 ha        1 318      0.228250
     56 H11        55.1750  141.1860  -88.3430 ha        1 318      0.182000
     57 H12        49.8980  140.2990  -87.9950 ha        1 318      0.228250
     58 H13        54.0750  143.8970  -91.6940 ha        1 318      0.248000
     59 H14        53.5070  139.8140  -90.6260 ha        1 318      0.187000
     60 H16        47.7140  134.3530  -82.7890 ha        1 318      0.134500
     61 H18        45.3140  132.2440  -85.6170 ha        1 318      0.184000
     62 H20        48.0170  134.6330  -84.6120 ha        1 318      0.134500
     63 H22        52.6510  134.6740  -81.8920 ha        1 318      0.154000
     64 H24        53.9490  134.6130  -79.7380 ha        1 318      0.171000
     65 H26        52.4290  131.6410  -81.0570 ha        1 318      0.206000
     66 H27        57.3800  132.1800  -81.7800 hc        1 318      0.100667
     67 H27A       56.7500  130.5620  -82.3110 hc        1 318      0.100667
     68 H27B       56.9590  130.9150  -80.5420 hc        1 318      0.100667
     69 H29      -162.2800 -488.6330  304.8630 hc        1 318      0.096333
     70 H29A     -163.0970 -488.2390  301.2710 h1        1 318      0.128500
     71 H30      -163.6610 -488.5700  303.6940 hc        1 318      0.096333
     72 H30A     -162.3140 -489.7580  303.4410 hc        1 318      0.096333
     73 H31      -162.0960 -486.6600  303.2890 hc        1 318      0.135500
     74 H31A     -160.6980 -487.8040  303.1580 hc        1 318      0.135500
     75 H31B     -161.8830 -486.8700  300.9320 h1        1 318      0.128500
     76 H32      -163.2220 -490.9590  301.4940 ha        1 318      0.002000
     77 H32A     -162.8960 -490.5450  301.0670 ha        1 318      0.002000
     78 H33      -160.2090 -490.6740  297.2150 h1        1 318      0.157333
     79 H33A     -161.6660 -489.6530  296.7140 h1        1 318      0.157333
     80 H34        56.7330  132.4780  -76.8950 ha        1 318      0.228250
     81 H34A       55.8720  133.0900  -79.7250 ha        1 318      0.169000
     82 H34B       58.1900  134.7950  -78.7710 ha        1 318      0.228250
     83 H121       51.1720  134.3170  -83.3560 hn        1 318      0.259500
     84 H41      -161.9170 -491.2090  297.6830 h1        1 318      0.157333
     85 F2         46.0480  132.3540  -83.1410 f         1 318     -0.092000
     86 C7         51.1400  132.3600  -82.5860 c2        1 318      0.310000
@<TRIPOS>BOND
     1    1   24 1   
     2    2    3 1   
     3    2   43 1   
     4    2   83 1   
     5    2   86 1   
     6    3    4 1   
     7    3   11 1   
     8    3   44 1   
     9    4    5 1   
    10    4   45 1   
    11    4   47 1   
    12    5   46 1   
    13    6   10 1   
    14    6   49 1   
    15    7    8 1   
    16    7   48 1   
    17    7   50 1   
    18    8    9 1   
    19    9   13 1   
    20    9   53 1   
    21    9   54 1   
    22   10   12 1   
    23   11   20 1   
    24   11   51 1   
    25   11   52 1   
    26   13   14 1   
    27   14   19 1   
    28   14   56 1   
    29   15   16 1   
    30   15   55 1   
    31   16   57 1   
    32   17   18 1   
    33   17   58 1   
    34   18   19 1   
    35   19   59 1   
    36   20   25 1   
    37   21   22 1   
    38   21   60 1   
    39   21   62 1   
    40   22   23 1   
    41   22   85 1   
    42   23   24 1   
    43   23   61 1   
    44   24   25 1   
    45   26   86 1   
    46   27   28 1   
    47   27   65 1   
    48   27   86 1   
    49   28   29 1   
    50   28   63 1   
    51   29   30 1   
    52   29   64 1   
    53   30   31 1   
    54   30   81 1   
    55   31   32 1   
    56   31   33 1   
    57   33   66 1   
    58   33   67 1   
    59   33   68 1   
    60   34   35 1   
    61   34   36 1   
    62   35   39 1   
    63   36   40 1   
    64   37   38 1   
    65   37   69 1   
    66   37   71 1   
    67   37   72 1   
    68   38   39 1   
    69   38   73 1   
    70   38   74 1   
    71   39   70 1   
    72   39   75 1   
    73   40   78 1   
    74   40   79 1   
    75   40   84 1   
    76   41   42 1   
    77   41   80 1   
    78   42   82 1   
    79   76   77 1   
@<TRIPOS>SUBSTRUCTURE
     1 318         1 TEMP              0 ****  ****    0 ROOT
