@<TRIPOS>MOLECULE
318
   84    87     1     0     0
SMALL
bcc


@<TRIPOS>ATOM
      1 F1          0.1460    5.7390    0.5920 f         1 318     -0.134900
      2 N1          0.1820    0.3400   -1.2690 n         1 318     -0.552900
      3 C1         -1.1460    0.7050   -0.8350 c3        1 318      0.119700
      4 C2         -2.1110   -0.5190   -0.8620 c3        1 318      0.121100
      5 O1         -2.3290   -0.8220   -2.2290 oh        1 318     -0.609800
      6 C3         -3.4520   -0.2360   -0.1600 c3        1 318      0.037500
      7 N2         -3.3820    0.2680    1.2210 n3        1 318     -0.783200
      8 C4         -4.2870   -0.5830    2.0250 c3        1 318      0.284200
      9 N3         -4.6870   -1.7520    1.2220 n         1 318     -0.466800
     10 C5         -4.3070   -1.5340   -0.1060 c         1 318      0.666500
     11 C6         -1.7380    1.8470   -1.6790 c3        1 318     -0.050100
     12 O2         -4.5640   -2.2670   -1.0730 o         1 318     -0.624500
     13 C8         -5.8220   -2.5440    1.6070 c3        1 318      0.142300
     14 C9         -7.1650   -1.8870    1.4610 ca        1 318     -0.133300
     15 C10        -7.7060   -1.6900    0.1850 ca        1 318     -0.115500
     16 C11        -8.9670   -1.1130    0.0430 ca        1 318     -0.131000
     17 C12        -9.6930   -0.7320    1.1710 ca        1 318     -0.120000
     18 C13        -9.1560   -0.9270    2.4440 ca        1 318     -0.131000
     19 C14        -7.8940   -1.5010    2.5900 ca        1 318     -0.115500
     20 C15        -0.8770    3.0620   -1.6810 ca        1 318     -0.024300
     21 C16        -0.2020    3.4360   -2.8450 ca        1 318     -0.179500
     22 C17         0.5970    4.5940   -2.8460 ca        1 318      0.156400
     23 C18         0.7250    5.3820   -1.6910 ca        1 318     -0.207000
     24 C19         0.0360    4.9900   -0.5310 ca        1 318      0.156400
     25 C20        -0.7640    3.8350   -0.5230 ca        1 318     -0.179500
     26 O3          0.8350   -0.3460    0.8170 o         1 318     -0.617100
     27 C21         2.4040   -0.6580   -0.9670 ca        1 318     -0.138600
     28 C22         3.5590   -0.3790   -0.2310 ca        1 318     -0.059000
     29 C23         4.8020   -0.7810   -0.7260 ca        1 318     -0.126600
     30 C24         4.8920   -1.4580   -1.9450 ca        1 318     -0.078000
     31 C25         3.7330   -1.7480   -2.6750 ca        1 318     -0.082300
     32 C26         2.4880   -1.3440   -2.1820 ca        1 318     -0.097000
     33 C27         3.8290   -2.4870   -3.9560 c3        1 318     -0.056800
     34 C28         6.0570   -0.4280    0.0060 c         1 318      0.671700
     35 O4          6.8020    0.4760   -0.4220 o         1 318     -0.594100
     36 N4          6.3690   -1.1160    1.1690 n         1 318     -0.470800
     37 C29         7.5910   -0.8100    1.8820 c3        1 318      0.090000
     38 C30         7.3880    0.0170    3.1540 c3        1 318     -0.100900
     39 C31         8.7140    0.2580    3.8280 c3        1 318     -0.093100
     40 C32         5.5940   -2.2380    1.6400 c3        1 318      0.090000
     41 C33         6.0360   -3.6000    1.0980 c3        1 318     -0.100900
     42 C34         5.1800   -4.6930    1.6820 c3        1 318     -0.093100
     43 HN1         0.3470    0.3100   -2.2470 hn        1 318      0.321500
     44 H1         -1.0530    1.0560    0.2370 h1        1 318      0.087700
     45 H2         -1.6120   -1.3920   -0.3510 h1        1 318      0.056700
     46 HO1        -2.9220   -1.5870   -2.2720 ho        1 318      0.435000
     47 H3         -4.0350    0.5150   -0.7680 h1        1 318      0.107700
     48 HN2        -2.4440    0.1940    1.5740 hn        1 318      0.372800
     49 H4         -3.7910   -0.9500    2.9680 h2        1 318      0.065200
     50 H4A        -5.1900    0.0390    2.2980 h2        1 318      0.065200
     51 H6         -1.9140    1.4840   -2.7270 hc        1 318      0.074700
     52 H6A        -2.7390    2.1090   -1.2380 hc        1 318      0.074700
     53 H8         -5.8060   -3.4740    0.9650 h1        1 318      0.072200
     54 H8A        -5.6660   -2.8470    2.6830 h1        1 318      0.072200
     55 H10        -7.1280   -1.9960   -0.7020 ha        1 318      0.140000
     56 H11        -9.3890   -0.9610   -0.9620 ha        1 318      0.135000
     57 H12       -10.6880   -0.2780    1.0580 ha        1 318      0.134000
     58 H13        -9.7270   -0.6270    3.3340 ha        1 318      0.135000
     59 H14        -7.4750   -1.6550    3.5950 ha        1 318      0.140000
     60 H16        -0.2870    2.8360   -3.7630 ha        1 318      0.153500
     61 H18         1.3510    6.2850   -1.6940 ha        1 318      0.166000
     62 H20        -1.2950    3.5470    0.3970 ha        1 318      0.153500
     63 H22         3.4790    0.1530    0.7310 ha        1 318      0.163000
     64 H24         5.8780   -1.7550   -2.3360 ha        1 318      0.148000
     65 H26         1.5790   -1.5840   -2.7550 ha        1 318      0.140000
     66 H27         3.8520   -3.5890   -3.7600 hc        1 318      0.049700
     67 H27A        2.9520   -2.2670   -4.6140 hc        1 318      0.049700
     68 H27B        4.7620   -2.2090   -4.5060 hc        1 318      0.049700
     69 H29         8.0930   -1.7820    2.1580 h1        1 318      0.057950
     70 H29A        8.2830   -0.2430    1.1930 h1        1 318      0.057950
     71 H30         6.9110    0.9980    2.8950 hc        1 318      0.046200
     72 H30A        6.6970   -0.5170    3.8570 hc        1 318      0.046200
     73 H31         9.4070    0.8130    3.1510 hc        1 318      0.036200
     74 H31A        8.5680    0.8630    4.7550 hc        1 318      0.036200
     75 H31B        9.1980   -0.7090    4.1110 hc        1 318      0.036200
     76 H32         5.6670   -2.2600    2.7660 h1        1 318      0.057950
     77 H32A        4.5100   -2.0800    1.3730 h1        1 318      0.057950
     78 H33         5.9520   -3.6080   -0.0210 hc        1 318      0.046200
     79 H33A        7.1130   -3.7840    1.3530 hc        1 318      0.046200
     80 H34         5.2710   -4.7160    2.7950 hc        1 318      0.036200
     81 H34A        4.1050   -4.5370    1.4210 hc        1 318      0.036200
     82 H34B        5.4990   -5.6860    1.2820 hc        1 318      0.036200
     83 F2          1.2500    4.9550   -3.9760 f         1 318     -0.134900
     84 C7          1.0910   -0.2320   -0.4010 c         1 318      0.673700
@<TRIPOS>BOND
     1    1   24 1   
     2    2    3 1   
     3    2   43 1   
     4    2   84 1   
     5    3    4 1   
     6    3   11 1   
     7    3   44 1   
     8    4    5 1   
     9    4    6 1   
    10    4   45 1   
    11    5   46 1   
    12    6    7 1   
    13    6   10 1   
    14    6   47 1   
    15    7    8 1   
    16    7   48 1   
    17    8    9 1   
    18    8   49 1   
    19    8   50 1   
    20    9   10 1   
    21    9   13 1   
    22   10   12 2   
    23   11   20 1   
    24   11   51 1   
    25   11   52 1   
    26   13   14 1   
    27   13   53 1   
    28   13   54 1   
    29   14   15 ar  
    30   14   19 ar  
    31   15   16 ar  
    32   15   55 1   
    33   16   17 ar  
    34   16   56 1   
    35   17   18 ar  
    36   17   57 1   
    37   18   19 ar  
    38   18   58 1   
    39   19   59 1   
    40   20   21 ar  
    41   20   25 ar  
    42   21   22 ar  
    43   21   60 1   
    44   22   23 ar  
    45   22   83 1   
    46   23   24 ar  
    47   23   61 1   
    48   24   25 ar  
    49   25   62 1   
    50   26   84 2   
    51   27   28 ar  
    52   27   32 ar  
    53   27   84 1   
    54   28   29 ar  
    55   28   63 1   
    56   29   30 ar  
    57   29   34 1   
    58   30   31 ar  
    59   30   64 1   
    60   31   32 ar  
    61   31   33 1   
    62   32   65 1   
    63   33   66 1   
    64   33   67 1   
    65   33   68 1   
    66   34   35 2   
    67   34   36 1   
    68   36   37 1   
    69   36   40 1   
    70   37   38 1   
    71   37   69 1   
    72   37   70 1   
    73   38   39 1   
    74   38   71 1   
    75   38   72 1   
    76   39   73 1   
    77   39   74 1   
    78   39   75 1   
    79   40   41 1   
    80   40   76 1   
    81   40   77 1   
    82   41   42 1   
    83   41   78 1   
    84   41   79 1   
    85   42   80 1   
    86   42   81 1   
    87   42   82 1   
@<TRIPOS>SUBSTRUCTURE
     1 318         1 TEMP              0 ****  ****    0 ROOT
