@<TRIPOS>MOLECULE
318
   86    80     1     0     0
SMALL
bcc


@<TRIPOS>ATOM
      1 F1          0.8310    2.2780    0.7160 f         1 318     -0.053000
      2 N1          3.7870   -2.6760   -0.0050 ny        1 318     -0.102000
      3 C1          3.1640   -2.5710   -1.3740 c3        1 318     -0.102000
      4 C2          3.9170   -3.4670   -2.3870 c3        1 318     -0.031000
      5 O1          5.3040   -3.2490   -2.2790 oh        1 318     -0.350000
      6 C3          5.6100   -0.5810   -6.6580 c2        1 318     -0.188000
      7 N2          3.4110   -2.2810   -7.7930 n8        1 318     -0.362000
      8 C4          4.5370   -1.9460   -8.4370 c1        1 318      0.020000
      9 N3          5.5370   -1.1970   -7.9110 n7        1 318     -0.254000
     10 C5          5.1770   -1.0970   -5.5180 c1        1 318      0.166000
     11 C6          3.1510   -1.1180   -1.8780 c3        1 318     -0.078000
     12 O2          4.6330   -1.4110   -4.4900 o         1 318     -0.276000
     13 C8          7.9620   -0.9640  -10.2650 c1        1 318     -0.203000
     14 C9          8.0460    0.2100  -10.0410 c1        1 318     -0.109000
     15 C10         9.8770    1.5030   -6.1430 c3        1 318     -0.127000
     16 C11         8.5500    2.0240   -6.2040 c1        1 318     -0.156000
     17 C12         7.4390    2.4680   -6.2590 c1        1 318     -0.249000
     18 C13         7.9960    2.5820  -10.6300 c1        1 318      0.276000
     19 C14         8.1460    1.5770   -9.7820 c2        1 318     -0.399000
     20 C15         2.6200   -0.2190   -0.9020 c1        1 318     -0.152000
     21 C16         4.2690   -0.1050    2.0360 c2        1 318     -0.334000
     22 C17         3.1080    0.1010    2.6930 c2        1 318      0.126000
     23 C18         2.1100    1.0960    2.3080 c2        1 318     -0.205000
     24 C19         1.7240    1.3110    1.0220 c2        1 318      0.223000
     25 C20         2.2030    0.5130   -0.0500 c1        1 318     -0.118000
     26 O3          2.4860   -4.6050    0.3420 o         1 318     -0.165000
     27 C21         3.7360   -3.7550    2.2360 c2        1 318     -0.245000
     28 C22         4.2170   -4.8640    2.8300 c2        1 318     -0.046000
     29 C23         4.8850   -4.8080    4.1590 c3        1 318     -0.191000
     30 C24         6.2910   -4.3390    4.1220 c1        1 318      0.049000
     31 C25         6.7360   -3.5360    3.0250 c2        1 318     -0.395000
     32 C26         6.0200   -3.1500    1.9730 c1        1 318      0.174000
     33 C27         8.1870   -3.1410    3.0830 c3        1 318     -0.145000
     34 C28         4.8060   -6.1490    4.8940 c2        1 318      0.368000
     35 O4          4.0030   -6.2750    5.8570 o         1 318     -0.492000
     36 N4          5.5530   -7.2180    4.4920 ns        1 318     -0.336000
     37 C29         3.7160   -7.1090   10.0300 c3        1 318     -0.241000
     38 C30         3.2820   -6.3930    8.7790 c3        1 318     -0.277000
     39 C31         2.3570   -7.0900    7.9420 c2        1 318      0.285000
     40 C32         6.6580   -7.1620    3.5690 c3        1 318     -0.019000
     41 C33         8.0220   -6.8700    4.2090 c3        1 318     -0.274000
     42 C34         8.9450   -6.3600    3.2180 c1        1 318     -0.070000
     43 HN1         3.6700   -1.7850    0.5050 hn        1 318      0.279500
     44 H1          2.0990   -2.9440   -1.2900 hx        1 318      0.163000
     45 H2          3.7440   -4.5500   -2.1360 h1        1 318      0.132500
     46 HO1         5.5850   -2.6880   -3.0180 ho        1 318      0.253000
     47 H3          3.5240   -3.2430   -3.4140 h1        1 318      0.132500
     48 HN2         3.1270   -1.9750   -6.8890 hn        1 318      0.204000
     49 H4          6.2050    0.3590   -6.5990 h4        1 318      0.205000
     50 H4A         2.7480   -2.8010   -8.3180 hn        1 318      0.204000
     51 H6          4.1940   -0.8070   -2.1800 hc        1 318      0.160000
     52 H6A         2.5290   -1.0940   -2.8210 hc        1 318      0.160000
     53 H8          6.2980   -1.0040   -8.5360 hn        1 318      0.278000
     54 H8A         7.8900   -2.0000  -10.4860 ha        1 318      0.237000
     55 H10        10.1970    1.1230   -7.1490 hc        1 318      0.104000
     56 H11        10.5960    2.3030   -5.8240 hc        1 318      0.104000
     57 H12         9.9400    0.6580   -5.4100 hc        1 318      0.104000
     58 H13         6.4700    2.8960   -6.3160 ha        1 318      0.227000
     59 H14         8.3940    1.8540   -8.7260 ha        1 318      0.201000
     60 H16         5.0260   -0.8180    2.3890 ha        1 318      0.142500
     61 H18         1.6690    1.6870    3.1310 ha        1 318      0.195000
     62 H20         4.5450    0.5130    1.1720 ha        1 318      0.142500
     63 H22         4.2030   -5.8460    2.3180 ha        1 318      0.176000
     64 H24         4.3580   -4.0550    4.8370 hc        1 318      0.193000
     65 H26         3.6450   -2.7810    2.7590 ha        1 318      0.189000
     66 H27         8.4180   -2.7360    4.0980 hc        1 318      0.117000
     67 H27A        8.4330   -2.3690    2.3150 hc        1 318      0.117000
     68 H27B        8.8100   -4.0570    2.8950 hc        1 318      0.117000
     69 H29         4.4060   -6.4570   10.6220 hc        1 318      0.119667
     70 H29A        2.0630   -6.6680    6.9580 ha        1 318      0.184500
     71 H30         4.2600   -8.0520    9.7750 hc        1 318      0.119667
     72 H30A        2.8410   -7.3660   10.6770 hc        1 318      0.119667
     73 H31         4.1810   -6.0710    8.1470 hc        1 318      0.231000
     74 H31A        2.8070   -5.3810    9.0380 hc        1 318      0.231000
     75 H31B        1.8640   -8.0240    8.2790 ha        1 318      0.184500
     76 H32         3.8090   -8.5810    7.2640 ha        1 318      0.020500
     77 H32A        3.6220   -8.4390    6.6220 ha        1 318      0.020500
     78 H33         6.4520   -6.3780    2.7840 h1        1 318      0.111500
     79 H33A        6.7090   -8.1620    3.0490 h1        1 318      0.111500
     80 H34         7.9280   -6.0060    4.9460 hc        1 318      0.143500
     81 H34A        8.3730   -7.7680    4.7850 hc        1 318      0.143500
     82 H34B       10.0170   -6.4480    3.4460 ha        1 318      0.077000
     83 H121        4.8090   -2.8400   -0.1120 hn        1 318      0.279500
     84 H41         5.4870   -8.0450    5.0500 hn        1 318      0.242000
     85 F2          2.8090   -0.6270    3.8030 f         1 318     -0.114000
     86 C7          3.2420   -3.7890    0.8470 c2        1 318      0.299000
@<TRIPOS>BOND
     1    1   24 1   
     2    2    3 1   
     3    2   43 1   
     4    2   83 1   
     5    2   86 1   
     6    3    4 1   
     7    3   11 1   
     8    3   44 1   
     9    4    5 1   
    10    4   45 1   
    11    4   47 1   
    12    5   46 1   
    13    6    9 1   
    14    6   10 1   
    15    6   49 1   
    16    7    8 1   
    17    7   48 1   
    18    7   50 1   
    19    8    9 1   
    20    9   53 1   
    21   10   12 1   
    22   11   20 1   
    23   11   51 1   
    24   11   52 1   
    25   13   14 1   
    26   13   54 1   
    27   14   19 1   
    28   15   16 1   
    29   15   55 1   
    30   15   56 1   
    31   15   57 1   
    32   16   17 1   
    33   17   58 1   
    34   18   19 1   
    35   19   59 1   
    36   20   25 1   
    37   21   22 1   
    38   21   60 1   
    39   21   62 1   
    40   22   23 1   
    41   22   85 1   
    42   23   24 1   
    43   23   61 1   
    44   24   25 1   
    45   26   86 1   
    46   27   28 1   
    47   27   65 1   
    48   27   86 1   
    49   28   29 1   
    50   28   63 1   
    51   29   30 1   
    52   29   34 1   
    53   29   64 1   
    54   30   31 1   
    55   31   32 1   
    56   31   33 1   
    57   33   66 1   
    58   33   67 1   
    59   33   68 1   
    60   34   35 1   
    61   34   36 1   
    62   36   40 1   
    63   36   84 1   
    64   37   38 1   
    65   37   69 1   
    66   37   71 1   
    67   37   72 1   
    68   38   39 1   
    69   38   73 1   
    70   38   74 1   
    71   39   70 1   
    72   39   75 1   
    73   40   41 1   
    74   40   78 1   
    75   40   79 1   
    76   41   42 1   
    77   41   80 1   
    78   41   81 1   
    79   42   82 1   
    80   76   77 1   
@<TRIPOS>SUBSTRUCTURE
     1 318         1 TEMP              0 ****  ****    0 ROOT
