@<TRIPOS>MOLECULE
319
   45    36     1     0     0
SMALL
bcc


@<TRIPOS>ATOM
      1 C1          0.4050    5.4790   -3.9640 c1        1 319     -0.143000
      2 C2          2.7610    5.2160   -4.1970 c1        1 319     -0.090000
      3 C3          0.4850   -1.3100    2.1090 c1        1 319     -0.143000
      4 C4         -0.0430   -2.6160    2.2920 c1        1 319     -0.143000
      5 C5          0.3210    5.8930   -5.3160 c1        1 319     -0.143000
      6 C6          2.6870    5.6280   -5.5460 c1        1 319     -0.161000
      7 C7         -0.8140   -5.9310    2.3670 c1        1 319     -0.143000
      8 C8         -1.1120   -0.8900    0.4080 c1        1 319     -0.189000
      9 C9         -2.4360   -4.9510    3.7580 c1        1 319     -0.264000
     10 C10        -0.6290   -6.9370    3.3060 c1        1 319     -0.143000
     11 C11         1.6070    5.1480   -3.4250 c1        1 319     -0.111000
     12 C12        -0.0750   -0.4670    1.1540 c1        1 319      0.115000
     13 C13        -1.0790   -3.0290    1.5420 c1        1 319     -0.028000
     14 C14        -1.7180   -4.9450    2.6030 c1        1 319      0.140000
     15 C15         1.4760    5.9610   -6.0900 c1        1 319      0.099000
     16 C16        -1.6310   -2.1810    0.5900 c1        1 319      0.129000
     17 C17        -2.2430   -5.9610    4.6900 c1        1 319      0.133000
     18 C18         1.3890    3.2770   -1.7710 c1        1 319      0.366000
     19 C19         0.4080    1.5390   -0.3820 c1        1 319      0.366000
     20 C20         1.8030    4.7430   -1.9530 c2        1 319     -0.149000
     21 N21        -1.3500   -6.9330    4.4550 n1        1 319     -0.215000
     22 N22        -2.7560   -6.0700    6.0230 n3        1 319     -0.327000
     23 N23         0.4780    0.9190    0.9430 n2        1 319     -0.337000
     24 N24         0.8250    2.8510   -0.5440 n3        1 319     -0.395000
     25 O25         1.6510    2.4550   -2.6420 o         1 319     -0.299500
     26 O26        -0.0920    0.9380   -1.3100 o         1 319     -0.299500
     27 O27        -2.0220   -4.0530    1.5580 os        1 319     -0.142000
     28 F28         1.6230    6.2050   -7.3360 f         1 319     -0.099000
     29 F29        -2.8040   -2.4630    0.1610 f         1 319     -0.082000
     30 H1         -0.3950    5.4330   -3.4210 ha        1 319      0.150167
     31 H2          3.6020    4.9830   -3.8130 ha        1 319      0.150000
     32 H3          1.2280   -1.0100    2.6480 ha        1 319      0.150167
     33 H4          0.3330   -3.1970    2.9440 ha        1 319      0.150167
     34 H5         -0.5370    6.1290   -5.7040 ha        1 319      0.150167
     35 H6          3.5540    5.6790   -6.1280 ha        1 319      0.157000
     36 H7         -0.3170   -5.9340    1.5730 ha        1 319      0.150167
     37 H8         -1.5140   -0.2820   -0.2730 ha        1 319      0.197000
     38 H9         -3.0830   -4.2550    3.9300 ha        1 319      0.159000
     39 H10         0.0340   -7.6670    3.1350 ha        1 319      0.150167
     40 H20         1.2640    5.2990   -1.3930 ha        1 319      0.130000
     41 H20A        2.8170    4.8630   -1.6890 ha        1 319      0.130000
     42 HN22       -3.5360   -5.5800    6.2740 hn        1 319      0.204000
     43 HN2A       -2.3340   -6.7140    6.6750 hn        1 319      0.204000
     44 HN23        0.9760    1.3120    1.5970 hn        1 319      0.232000
     45 HN24        0.7940    3.4240    0.1640 hn        1 319      0.234000
@<TRIPOS>BOND
     1    1    5 1   
     2    1   30 1   
     3    2   11 1   
     4    2   31 1   
     5    3    4 1   
     6    3   32 1   
     7    4   33 1   
     8    5   34 1   
     9    6   15 1   
    10    6   35 1   
    11    7   10 1   
    12    7   36 1   
    13    8   12 1   
    14    8   37 1   
    15    9   14 1   
    16    9   38 1   
    17   10   39 1   
    18   11   20 1   
    19   12   23 1   
    20   13   16 1   
    21   13   27 1   
    22   14   27 1   
    23   15   28 1   
    24   16   29 1   
    25   17   21 1   
    26   17   22 1   
    27   18   24 1   
    28   18   25 1   
    29   19   24 1   
    30   19   26 1   
    31   20   40 1   
    32   20   41 1   
    33   22   42 1   
    34   22   43 1   
    35   23   44 1   
    36   24   45 1   
@<TRIPOS>SUBSTRUCTURE
     1 319         1 TEMP              0 ****  ****    0 ROOT
