@<TRIPOS>MOLECULE
319
   48    49     1     0     0
SMALL
bcc


@<TRIPOS>ATOM
      1 C1        681.1660  368.5170  -35.6570 ca        1 319     -0.062000
      2 C2        681.3960  366.2060  -34.9370 ca        1 319     -0.062000
      3 C3       -345.5720 -190.0360   18.1180 ca        1 319     -0.087000
      4 C4       -346.6430 -189.9070   18.9990 ca        1 319     -0.105000
      5 C5        680.9450  368.0970  -36.9610 ca        1 319     -0.160000
      6 C6        681.1780  365.7710  -36.2370 ca        1 319     -0.160000
      7 C7       -347.4520 -190.0490   22.0490 c2        1 319     -0.197000
      8 C8       -346.0210 -192.4350   17.9090 ca        1 319     -0.141000
      9 C9       -349.8780 -190.2620   21.8860 c2        1 319     -0.149000
     10 C10      -347.6390 -189.5510   23.3580 c2        1 319      0.014000
     11 C11       681.3870  367.5770  -34.6390 ca        1 319     -0.210000
     12 C12      -345.2750 -191.2970   17.5670 ca        1 319     -0.100000
     13 C13      -347.4080 -191.0250   19.3380 ca        1 319      0.038000
     14 C14      -348.5860 -190.4030   21.3190 c2        1 319      0.126000
     15 C15       680.9480  366.7170  -37.2590 ca        1 319      0.173000
     16 C16      -347.0940 -192.3050   18.8100 ca        1 319      0.144000
     17 C17      -349.9300 -189.7600   23.1960 c2        1 319     -0.043000
     18 C18       680.4640  368.1540  -32.4910 c1        1 319      0.430000
     19 C19      -342.8160 -191.0930   17.2400 c2        1 319      0.350000
     20 C20       681.6850  368.0370  -33.2580 c3        1 319     -0.083000
     21 N21      -348.8370 -189.4030   23.9360 n2        1 319     -0.125000
     22 N22      -351.2450 -189.5970   23.8560 n4        1 319     -0.013000
     23 N23      -344.1880 -191.4130   16.5910 n4        1 319     -0.054000
     24 N24      -342.0750 -192.1220   17.7150 n         1 319     -0.365000
     25 O25       679.4720  368.2380  -31.9040 o         1 319      0.110000
     26 O26      -342.5560 -189.8870   17.2530 o         1 319     -0.238000
     27 O27      -348.6030 -190.9370   20.0430 os        1 319     -0.121000
     28 F28       680.7340  366.3030  -38.5210 f         1 319     -0.059000
     29 F29      -347.8230 -193.3840   19.1470 f         1 319     -0.042000
     30 H1        681.1780  369.5960  -35.4340 ha        1 319      0.150000
     31 H2        681.5910  365.4630  -34.1470 ha        1 319      0.150000
     32 H3       -344.9720 -189.1440   17.8570 ha        1 319      0.194000
     33 H4       -346.8970 -188.9150   19.4120 ha        1 319      0.187000
     34 H5        680.7750  368.8280  -37.7690 ha        1 319      0.184000
     35 H6        681.1870  364.6960  -36.4820 ha        1 319      0.184000
     36 H8       -345.8110 -193.4340   17.4900 ha        1 319      0.185000
     37 H10      -346.7720 -189.2550   23.9870 h4        1 319      0.218000
     38 H20       682.1950  369.0520  -33.2610 hc        1 319      0.207000
     39 H20A      682.3690  367.3080  -32.7180 hc        1 319      0.207000
     40 HN22     -351.3720 -188.6150   24.1450 hn        1 319      0.276667
     41 HN2A     -351.9920 -189.8630   23.2060 hn        1 319      0.276667
     42 HN23     -344.3320 -190.6970   15.8590 hn        1 319      0.271500
     43 HN24     -342.3390 -193.0760   17.6430 hn        1 319      0.287500
     44 H7       -346.4370 -190.1550   21.6380 ha        1 319      0.182000
     45 H223     -351.2880 -190.1930   24.6950 hn        1 319      0.276667
     46 H232     -344.2040 -192.3400   16.1550 hn        1 319      0.271500
     47 H242     -341.1720 -191.8970   18.0860 hn        1 319      0.287500
     48 H9       -350.7640 -190.5500   21.2980 ha        1 319      0.195000
@<TRIPOS>BOND
     1    1    5 1   
     2    1   11 1   
     3    1   30 1   
     4    2    6 1   
     5    2   11 1   
     6    2   31 1   
     7    3    4 1   
     8    3   12 1   
     9    3   32 1   
    10    4   13 1   
    11    4   33 1   
    12    5   15 1   
    13    5   34 1   
    14    6   15 1   
    15    6   35 1   
    16    7   10 1   
    17    7   14 1   
    18    7   44 1   
    19    8   12 1   
    20    8   16 1   
    21    8   36 1   
    22    9   14 1   
    23    9   17 1   
    24    9   48 1   
    25   10   21 1   
    26   10   37 1   
    27   11   20 1   
    28   12   23 1   
    29   13   16 1   
    30   13   27 1   
    31   14   27 1   
    32   15   28 1   
    33   16   29 1   
    34   17   21 1   
    35   17   22 1   
    36   18   20 1   
    37   18   25 1   
    38   19   23 1   
    39   19   24 1   
    40   19   26 1   
    41   20   38 1   
    42   20   39 1   
    43   22   40 1   
    44   22   41 1   
    45   22   45 1   
    46   23   42 1   
    47   23   46 1   
    48   24   43 1   
    49   24   47 1   
@<TRIPOS>SUBSTRUCTURE
     1 319         1 TEMP              0 ****  ****    0 ROOT
