@<TRIPOS>MOLECULE
319
   45    47     1     0     0
SMALL
bcc


@<TRIPOS>ATOM
      1 C1         -5.6000   -1.8940    0.4390 ca        1 319     -0.102000
      2 C2         -6.4630    0.3580    0.2530 ca        1 319     -0.102000
      3 C3          1.1770    1.2720    0.0420 ca        1 319     -0.150000
      4 C4          2.4970    1.4990   -0.3250 ca        1 319     -0.095000
      5 C5         -6.2050   -2.2380   -0.7640 ca        1 319     -0.163500
      6 C6         -7.0740    0.0350   -0.9530 ca        1 319     -0.163500
      7 C7          6.7120    1.2310   -1.3640 ca        1 319     -0.315300
      8 C8          1.1090   -0.6760   -1.4220 ca        1 319     -0.224000
      9 C9          5.3490    0.4260    0.4830 ca        1 319     -0.369300
     10 C10         7.8130    1.1430   -0.5010 ca        1 319      0.457200
     11 C11        -5.7200   -0.5980    0.9570 ca        1 319     -0.119300
     12 C12         0.4630    0.1810   -0.5020 ca        1 319      0.100600
     13 C13         3.1370    0.6550   -1.2350 ca        1 319      0.024100
     14 C14         5.4630    0.8560   -0.8390 ca        1 319      0.185100
     15 C15        -6.9460   -1.2690   -1.4680 ca        1 319      0.134900
     16 C16         2.4430   -0.4450   -1.7870 ca        1 319      0.157900
     17 C17         6.5320    0.3890    1.2830 ca        1 319      0.662200
     18 C18        -3.7320    0.4350    2.1170 c         1 319      0.673100
     19 C19        -1.5280    0.3330    0.9840 c         1 319      0.782100
     20 C20        -5.0880   -0.2460    2.2540 c3        1 319     -0.113100
     21 N21         7.7630    0.7340    0.7750 nb        1 319     -0.743000
     22 N22         6.4230    0.0590    2.6370 nh        1 319     -0.931500
     23 N23        -0.8870   -0.0690   -0.2060 n         1 319     -0.481100
     24 N24        -2.8600   -0.1150    1.1690 n         1 319     -0.612500
     25 O25        -3.4280    1.3990    2.8280 o         1 319     -0.521100
     26 O26        -0.9640    1.0430    1.8370 o         1 319     -0.558100
     27 O27         4.4050    0.9390   -1.7330 os        1 319     -0.231200
     28 F28        -7.5370   -1.5940   -2.6410 f         1 319     -0.133900
     29 F29         3.0470   -1.2710   -2.6700 f         1 319     -0.121900
     30 H1         -5.0330   -2.6560    0.9960 ha        1 319      0.144500
     31 H2         -6.5670    1.3770    0.6590 ha        1 319      0.144500
     32 H3          0.6960    1.9540    0.7650 ha        1 319      0.184000
     33 H4          3.0510    2.3520    0.1010 ha        1 319      0.162000
     34 H5         -6.1180   -3.2570   -1.1690 ha        1 319      0.155500
     35 H6         -7.6580    0.7840   -1.5080 ha        1 319      0.155500
     36 H8          0.5870   -1.5350   -1.8710 ha        1 319      0.149000
     37 H9          4.3760    0.1360    0.8990 ha        1 319      0.154000
     38 H10         8.8230    1.4170   -0.8610 h4        1 319      0.023100
     39 H20        -5.7510    0.4580    2.8290 hc        1 319      0.090700
     40 H20A       -4.9410   -1.1650    2.8850 hc        1 319      0.090700
     41 HN22        5.6620   -0.5400    2.8570 hn        1 319      0.410300
     42 HN2A        7.2710   -0.1470    3.1160 hn        1 319      0.410300
     43 HN23       -1.3340   -0.7370   -0.7920 hn        1 319      0.316500
     44 HN24       -3.2440   -0.7820    0.5380 hn        1 319      0.320500
     45 H7          6.8120    1.5690   -2.4010 ha        1 319      0.161000
@<TRIPOS>BOND
     1    1    5 ar  
     2    1   11 ar  
     3    1   30 1   
     4    2    6 ar  
     5    2   11 ar  
     6    2   31 1   
     7    3    4 ar  
     8    3   12 ar  
     9    3   32 1   
    10    4   13 ar  
    11    4   33 1   
    12    5   15 ar  
    13    5   34 1   
    14    6   15 ar  
    15    6   35 1   
    16    7   10 ar  
    17    7   14 ar  
    18    7   45 1   
    19    8   12 ar  
    20    8   16 ar  
    21    8   36 1   
    22    9   14 ar  
    23    9   17 ar  
    24    9   37 1   
    25   10   21 ar  
    26   10   38 1   
    27   11   20 1   
    28   12   23 1   
    29   13   16 ar  
    30   13   27 1   
    31   14   27 1   
    32   15   28 1   
    33   16   29 1   
    34   17   21 ar  
    35   17   22 1   
    36   18   20 1   
    37   18   24 1   
    38   18   25 2   
    39   19   23 1   
    40   19   24 1   
    41   19   26 2   
    42   20   39 1   
    43   20   40 1   
    44   22   41 1   
    45   22   42 1   
    46   23   43 1   
    47   24   44 1   
@<TRIPOS>SUBSTRUCTURE
     1 319         1 TEMP              0 ****  ****    0 ROOT
