@<TRIPOS>MOLECULE
319
   46    48     1     0     0
SMALL
bcc


@<TRIPOS>ATOM
      1 C1         -0.6940    1.1680    0.4830 ca        1 319     -0.092500
      2 C2         -0.1030   -0.8970    1.6060 ca        1 319     -0.092500
      3 C3         -4.9160   -5.5570    1.8510 ca        1 319     -0.101000
      4 C4         -5.6180   -6.7290    2.1120 ca        1 319     -0.147000
      5 C5          0.5950    1.2690   -0.0290 ca        1 319     -0.159000
      6 C6          1.1900   -0.8130    1.1040 ca        1 319     -0.159000
      7 C7         -5.9930   -9.7170    1.6190 ca        1 319     -0.348300
      8 C8         -6.8170   -4.7000    0.5770 ca        1 319     -0.160000
      9 C9         -7.6860   -9.8350    3.3660 ca        1 319     -0.315300
     10 C10        -5.5430  -10.9730    2.0620 ca        1 319      0.466200
     11 C11        -1.0560    0.0830    1.2920 ca        1 319     -0.200300
     12 C12        -5.5110   -4.5380    1.0880 ca        1 319     -0.013400
     13 C13        -6.9140   -6.9040    1.6210 ca        1 319      0.122100
     14 C14        -7.0870   -9.1690    2.2980 ca        1 319      0.152100
     15 C15         1.5450    0.2750    0.2790 ca        1 319      0.178900
     16 C16        -7.5220   -5.8800    0.8420 ca        1 319      0.141900
     17 C17        -7.1450  -11.1070    3.7440 ca        1 319      0.675200
     18 C18        -3.4230   -0.6660    0.9920 c         1 319      0.558100
     19 C19        -3.5020   -3.2020    0.7110 c         1 319      0.642100
     20 C20        -2.4170    0.0170    1.8790 c3        1 319     -0.089100
     21 N21        -6.0770  -11.6660    3.0740 nb        1 319     -0.723000
     22 N22        -7.6620  -11.7580    4.8550 nh        1 319     -0.938500
     23 N23        -4.8560   -3.2970    0.8350 n         1 319     -0.397100
     24 N24        -2.9360   -1.8550    0.2020 n4        1 319     -0.595600
     25 O25        -4.6020   -0.3790    0.8410 o         1 319     -0.436100
     26 O26        -2.6090   -4.0050    0.9980 o         1 319     -0.491100
     27 O27        -7.7190   -7.9920    1.8810 os        1 319     -0.221200
     28 F28         2.7970    0.3640   -0.2120 f         1 319     -0.104900
     29 F29        -8.7730   -6.0360    0.3630 f         1 319     -0.098900
     30 H1         -1.4260    1.9610    0.2600 ha        1 319      0.150000
     31 H2         -0.3630   -1.7290    2.2800 ha        1 319      0.150000
     32 H3         -3.8930   -5.4490    2.2490 ha        1 319      0.167000
     33 H4         -5.1490   -7.5270    2.7130 ha        1 319      0.180000
     34 H5          0.8850    2.1240   -0.6610 ha        1 319      0.176500
     35 H6          1.9440   -1.5750    1.3550 ha        1 319      0.176500
     36 H8         -7.3090   -3.9200   -0.0250 ha        1 319      0.162000
     37 H10        -4.6910  -11.4690    1.5580 h4        1 319      0.033100
     38 H20        -2.8140    1.0540    2.0810 hc        1 319      0.128200
     39 H20A       -2.4050   -0.5360    2.8620 hc        1 319      0.128200
     40 HN22       -8.5920  -11.5200    5.1080 hn        1 319      0.428800
     41 HN2A       -7.3870  -12.7000    5.0140 hn        1 319      0.428800
     42 HN23       -5.4490   -2.5350    0.5650 hn        1 319      0.362500
     43 HN24       -3.1930   -1.7440   -0.7850 hn        1 319      0.478300
     44 H7         -5.5230   -9.2080    0.7710 ha        1 319      0.153000
     45 H242       -1.9070   -1.9240    0.2720 hn        1 319      0.478300
     46 H9         -8.5480   -9.3980    3.8860 ha        1 319      0.164000
@<TRIPOS>BOND
     1    1    5 ar  
     2    1   11 ar  
     3    1   30 1   
     4    2    6 ar  
     5    2   11 ar  
     6    2   31 1   
     7    3    4 ar  
     8    3   12 ar  
     9    3   32 1   
    10    4   13 ar  
    11    4   33 1   
    12    5   15 ar  
    13    5   34 1   
    14    6   15 ar  
    15    6   35 1   
    16    7   10 ar  
    17    7   14 ar  
    18    7   44 1   
    19    8   12 ar  
    20    8   16 ar  
    21    8   36 1   
    22    9   14 ar  
    23    9   17 ar  
    24    9   46 1   
    25   10   21 ar  
    26   10   37 1   
    27   11   20 1   
    28   12   23 1   
    29   13   16 ar  
    30   13   27 1   
    31   14   27 1   
    32   15   28 1   
    33   16   29 1   
    34   17   21 ar  
    35   17   22 1   
    36   18   20 1   
    37   18   24 1   
    38   18   25 2   
    39   19   23 1   
    40   19   24 1   
    41   19   26 2   
    42   20   38 1   
    43   20   39 1   
    44   22   40 1   
    45   22   41 1   
    46   23   42 1   
    47   24   43 1   
    48   24   45 1   
@<TRIPOS>SUBSTRUCTURE
     1 319         1 TEMP              0 ****  ****    0 ROOT
