@<TRIPOS>MOLECULE
319
   46    48     1     0     0
SMALL
bcc


@<TRIPOS>ATOM
      1 C1         -0.7210    1.1890    0.5050 ca        1 319     -0.092500
      2 C2         -0.1160   -0.8780    1.6160 ca        1 319     -0.092500
      3 C3         -4.9110   -5.5620    1.8500 ca        1 319     -0.101000
      4 C4         -5.6090   -6.7390    2.1060 ca        1 319     -0.147000
      5 C5          0.5650    1.3000   -0.0110 ca        1 319     -0.159000
      6 C6          1.1750   -0.7840    1.1110 ca        1 319     -0.159000
      7 C7         -5.9710   -9.7250    1.5990 ca        1 319     -0.348300
      8 C8         -6.8160   -4.7080    0.5810 ca        1 319     -0.160000
      9 C9         -7.6630   -9.8600    3.3460 ca        1 319     -0.315300
     10 C10        -5.5160  -10.9820    2.0350 ca        1 319      0.466200
     11 C11        -1.0750    0.0980    1.3090 ca        1 319     -0.200300
     12 C12        -5.5110   -4.5430    1.0920 ca        1 319     -0.013400
     13 C13        -6.9040   -6.9170    1.6150 ca        1 319      0.122100
     14 C14        -7.0670   -9.1850    2.2810 ca        1 319      0.153100
     15 C15         1.5220    0.3090    0.2900 ca        1 319      0.178900
     16 C16        -7.5170   -5.8910    0.8420 ca        1 319      0.141900
     17 C17        -7.1170  -11.1320    3.7150 ca        1 319      0.675200
     18 C18        -3.4380   -0.6620    1.0110 c         1 319      0.558100
     19 C19        -3.5080   -3.1960    0.7190 c         1 319      0.642100
     20 C20        -2.4340    0.0220    1.8990 c3        1 319     -0.089100
     21 N21        -6.0470  -11.6830    3.0430 nb        1 319     -0.723000
     22 N22        -7.6310  -11.7920    4.8220 nv        1 319     -0.938500
     23 N23        -4.8610   -3.2980    0.8450 ns        1 319     -0.397100
     24 N24        -2.9480   -1.8450    0.2150 ny        1 319     -0.595600
     25 O25        -4.6190   -0.3790    0.8640 o         1 319     -0.436100
     26 O26        -2.6120   -3.9980    1.0010 o         1 319     -0.491100
     27 O27        -7.7040   -8.0090    1.8710 os        1 319     -0.221200
     28 F28         2.7720    0.4080   -0.2050 f         1 319     -0.104900
     29 F29        -8.7680   -6.0510    0.3630 f         1 319     -0.098900
     30 H1         -1.4580    1.9790    0.2870 ha        1 319      0.150000
     31 H2         -0.3690   -1.7150    2.2870 ha        1 319      0.150000
     32 H3         -3.8880   -5.4520    2.2470 ha        1 319      0.167000
     33 H4         -5.1360   -7.5380    2.7030 ha        1 319      0.180000
     34 H5          0.8490    2.1590   -0.6390 ha        1 319      0.176500
     35 H6          1.9350   -1.5440    1.3560 ha        1 319      0.176500
     36 H8         -7.3120   -3.9270   -0.0170 ha        1 319      0.162000
     37 H10        -4.6610  -11.4710    1.5270 h4        1 319      0.033100
     38 H20        -2.8360    1.0560    2.1080 hc        1 319      0.128200
     39 H20A       -2.4170   -0.5370    2.8800 hc        1 319      0.128200
     40 HN22       -8.5620  -11.5590    5.0770 hn        1 319      0.428800
     41 HN2A       -7.3530  -12.7340    4.9760 hn        1 319      0.428800
     42 HN23       -5.4570   -2.5370    0.5790 hn        1 319      0.362500
     43 HN24       -1.9190   -1.9100    0.2830 hn        1 319      0.478300
     44 H7         -5.5030   -9.2090    0.7540 ha        1 319      0.153000
     45 H242       -3.2070   -1.7310   -0.7700 hn        1 319      0.478300
     46 H9         -8.5270   -9.4300    3.8680 ha        1 319      0.164000
@<TRIPOS>BOND
     1    1    5 ar  
     2    1   11 ar  
     3    1   30 1   
     4    2    6 ar  
     5    2   11 ar  
     6    2   31 1   
     7    3    4 ar  
     8    3   12 ar  
     9    3   32 1   
    10    4   13 ar  
    11    4   33 1   
    12    5   15 ar  
    13    5   34 1   
    14    6   15 ar  
    15    6   35 1   
    16    7   10 ar  
    17    7   14 ar  
    18    7   44 1   
    19    8   12 ar  
    20    8   16 ar  
    21    8   36 1   
    22    9   14 ar  
    23    9   17 ar  
    24    9   46 1   
    25   10   21 ar  
    26   10   37 1   
    27   11   20 1   
    28   12   23 1   
    29   13   16 ar  
    30   13   27 1   
    31   14   27 1   
    32   15   28 1   
    33   16   29 1   
    34   17   21 ar  
    35   17   22 1   
    36   18   20 1   
    37   18   24 1   
    38   18   25 2   
    39   19   23 1   
    40   19   24 1   
    41   19   26 2   
    42   20   38 1   
    43   20   39 1   
    44   22   40 1   
    45   22   41 1   
    46   23   42 1   
    47   24   43 1   
    48   24   45 1   
@<TRIPOS>SUBSTRUCTURE
     1 319         1 TEMP              0 ****  ****    0 ROOT
