@<TRIPOS>MOLECULE
31D
   54    56     1     0     0
SMALL
bcc


@<TRIPOS>ATOM
      1 CAZ        -0.1260   -0.0690   -0.6610 c3        1 31D     -0.086433
      2 CAY         1.2520    0.2320   -0.0780 c3        1 31D     -0.012700
      3 CBA         1.1020    0.6390    1.3860 c3        1 31D     -0.086433
      4 CBB         2.0830   -1.0440   -0.1350 c3        1 31D     -0.086433
      5 CAV         1.8830    1.3640   -0.8460 ca        1 31D     -0.042300
      6 CAW         1.2340    2.6070   -0.8850 ca        1 31D     -0.139500
      7 CAX         1.7830    3.6840   -1.5770 ca        1 31D     -0.085000
      8 CAU         3.0960    1.2220   -1.5290 ca        1 31D     -0.139500
      9 CAT         3.6500    2.2940   -2.2270 ca        1 31D     -0.085000
     10 CAR         3.0010    3.5330   -2.2470 ca        1 31D     -0.152600
     11 CAQ         3.6340    4.6420   -3.0210 c         1 31D      0.683700
     12 OAS         4.2650    4.4140   -4.0720 o         1 31D     -0.606100
     13 NAP         3.4940    5.9160   -2.4860 n         1 31D     -0.471100
     14 CAD         3.9220    7.1190   -3.0610 ca        1 31D      0.118600
     15 CAC         4.9610    7.1710   -4.0190 ca        1 31D     -0.164000
     16 CAB         5.3880    8.3900   -4.5320 ca        1 31D     -0.097000
     17 CAA         4.8060    9.5850   -4.1120 ca        1 31D     -0.169000
     18 CAF         3.7720    9.5530   -3.1820 ca        1 31D     -0.086000
     19 CAE         3.3140    8.3410   -2.6620 ca        1 31D     -0.189600
     20 CAG         2.1910    8.3460   -1.6670 c         1 31D      0.669700
     21 OAI         2.2990    7.7300   -0.5830 o         1 31D     -0.626100
     22 NAH         1.0750    9.0610   -2.0350 n         1 31D     -0.443100
     23 CAJ        -0.1580    9.1350   -1.3440 ca        1 31D      0.005600
     24 CAK        -1.3040    9.5410   -2.0690 ca        1 31D     -0.181500
     25 CAL        -2.5310    9.6490   -1.4270 ca        1 31D     -0.092500
     26 CAM        -2.6590    9.3560   -0.0650 ca        1 31D     -0.132600
     27 CBC        -4.0130    9.4710    0.6210 c         1 31D      0.908200
     28 OBE        -4.0800    9.1770    1.8470 o         1 31D     -0.829300
     29 OBD        -4.9950    9.8540   -0.0750 o         1 31D     -0.829300
     30 CAN        -1.5280    8.9570    0.6470 ca        1 31D     -0.092500
     31 CAO        -0.2840    8.8460    0.0280 ca        1 31D     -0.181500
     32 H1         -0.7890    0.8260   -0.5870 hc        1 31D      0.037700
     33 H2         -0.0360   -0.3590   -1.7350 hc        1 31D      0.037700
     34 H3         -0.6000   -0.9090   -0.1000 hc        1 31D      0.037700
     35 H4          0.6360   -0.1940    1.9650 hc        1 31D      0.037700
     36 H5          2.1000    0.8690    1.8280 hc        1 31D      0.037700
     37 H6          0.4530    1.5420    1.4800 hc        1 31D      0.037700
     38 H7          2.1950   -1.3940   -1.1890 hc        1 31D      0.037700
     39 H8          3.0950   -0.8750    0.3040 hc        1 31D      0.037700
     40 H9          1.5760   -1.8480    0.4500 hc        1 31D      0.037700
     41 H10         0.2750    2.7440   -0.3610 ha        1 31D      0.140000
     42 H11         1.2380    4.6410   -1.5920 ha        1 31D      0.151000
     43 H12         3.6350    0.2620   -1.5300 ha        1 31D      0.140000
     44 H13         4.5970    2.1720   -2.7750 ha        1 31D      0.151000
     45 H14         2.9930    6.0000   -1.6200 hn        1 31D      0.355500
     46 H15         5.4360    6.2390   -4.3670 ha        1 31D      0.169000
     47 H16         6.1990    8.4050   -5.2750 ha        1 31D      0.129000
     48 H17         5.1590   10.5450   -4.5130 ha        1 31D      0.131000
     49 H18         3.3140   10.4970   -2.8450 ha        1 31D      0.141000
     50 H19         1.0740    9.4610   -2.9470 hn        1 31D      0.311500
     51 H20        -1.2320    9.7760   -3.1410 ha        1 31D      0.125000
     52 H21        -3.4320    9.9650   -1.9780 ha        1 31D      0.155500
     53 H23        -1.6400    8.7300    1.7200 ha        1 31D      0.155500
     54 H24         0.5900    8.5270    0.6150 ha        1 31D      0.125000
@<TRIPOS>BOND
     1    1    2 1   
     2    1   32 1   
     3    1   33 1   
     4    1   34 1   
     5    2    3 1   
     6    2    4 1   
     7    2    5 1   
     8    3   35 1   
     9    3   36 1   
    10    3   37 1   
    11    4   38 1   
    12    4   39 1   
    13    4   40 1   
    14    5    6 ar  
    15    5    8 ar  
    16    6    7 ar  
    17    6   41 1   
    18    7   10 ar  
    19    7   42 1   
    20    8    9 ar  
    21    8   43 1   
    22    9   10 ar  
    23    9   44 1   
    24   10   11 1   
    25   11   12 2   
    26   11   13 1   
    27   13   14 1   
    28   13   45 1   
    29   14   15 ar  
    30   14   19 ar  
    31   15   16 ar  
    32   15   46 1   
    33   16   17 ar  
    34   16   47 1   
    35   17   18 ar  
    36   17   48 1   
    37   18   19 ar  
    38   18   49 1   
    39   19   20 1   
    40   20   21 2   
    41   20   22 1   
    42   22   23 1   
    43   22   50 1   
    44   23   24 ar  
    45   23   31 ar  
    46   24   25 ar  
    47   24   51 1   
    48   25   26 ar  
    49   25   52 1   
    50   26   27 1   
    51   26   30 ar  
    52   27   28 1   
    53   27   29 1   
    54   30   31 ar  
    55   30   53 1   
    56   31   54 1   
@<TRIPOS>SUBSTRUCTURE
     1 31D         1 TEMP              0 ****  ****    0 ROOT
