@<TRIPOS>MOLECULE
31D
   54    56     1     0     0
SMALL
bcc


@<TRIPOS>ATOM
      1 CAZ        -0.1310   -0.0680   -0.6670 c3        1 31D     -0.086433
      2 CAY         1.2440    0.2340   -0.0750 c3        1 31D     -0.012700
      3 CBA         1.0840    0.6410    1.3870 c3        1 31D     -0.086433
      4 CBB         2.0750   -1.0430   -0.1270 c3        1 31D     -0.086433
      5 CAV         1.8800    1.3640   -0.8410 ca        1 31D     -0.042300
      6 CAW         1.2310    2.6080   -0.8840 ca        1 31D     -0.139500
      7 CAX         1.7850    3.6840   -1.5730 ca        1 31D     -0.085000
      8 CAU         3.0970    1.2220   -1.5150 ca        1 31D     -0.139500
      9 CAT         3.6550    2.2930   -2.2100 ca        1 31D     -0.085000
     10 CAR         3.0070    3.5320   -2.2360 ca        1 31D     -0.152600
     11 CAQ         3.6450    4.6410   -3.0060 c         1 31D      0.683700
     12 OAS         4.2820    4.4120   -4.0530 o         1 31D     -0.606100
     13 NAP         3.5020    5.9150   -2.4730 ns        1 31D     -0.471100
     14 CAD         3.9330    7.1170   -3.0450 ca        1 31D      0.118600
     15 CAC         4.9780    7.1690   -3.9970 ca        1 31D     -0.164000
     16 CAB         5.4080    8.3870   -4.5080 ca        1 31D     -0.097000
     17 CAA         4.8240    9.5830   -4.0930 ca        1 31D     -0.169000
     18 CAF         3.7840    9.5520   -3.1690 ca        1 31D     -0.086000
     19 CAE         3.3240    8.3400   -2.6510 ca        1 31D     -0.189600
     20 CAG         2.1950    8.3450   -1.6630 c         1 31D      0.669700
     21 OAI         2.2960    7.7300   -0.5780 o         1 31D     -0.626100
     22 NAH         1.0810    9.0600   -2.0380 ns        1 31D     -0.443100
     23 CAJ        -0.1560    9.1340   -1.3540 ca        1 31D      0.005600
     24 CAK        -1.2980    9.5390   -2.0860 ca        1 31D     -0.181500
     25 CAL        -2.5290    9.6460   -1.4520 ca        1 31D     -0.092500
     26 CAM        -2.6660    9.3550   -0.0910 ca        1 31D     -0.132600
     27 CBC        -4.0230    9.4700    0.5870 c         1 31D      0.908200
     28 OBE        -4.0980    9.1770    1.8140 o         1 31D     -0.829300
     29 OBD        -5.0020    9.8510   -0.1150 o         1 31D     -0.829300
     30 CAN        -1.5380    8.9570    0.6290 ca        1 31D     -0.092500
     31 CAO        -0.2910    8.8470    0.0170 ca        1 31D     -0.181500
     32 H1         -0.7940    0.8270   -0.5980 hc        1 31D      0.037700
     33 H2         -0.0340   -0.3590   -1.7400 hc        1 31D      0.037700
     34 H3         -0.6090   -0.9080   -0.1090 hc        1 31D      0.037700
     35 H4          2.0800    0.8710    1.8360 hc        1 31D      0.037700
     36 H5          0.6150   -0.1920    1.9640 hc        1 31D      0.037700
     37 H6          0.4350    1.5440    1.4760 hc        1 31D      0.037700
     38 H7          1.5630   -1.8470    0.4560 hc        1 31D      0.037700
     39 H8          3.0840   -0.8740    0.3190 hc        1 31D      0.037700
     40 H9          2.1940   -1.3930   -1.1790 hc        1 31D      0.037700
     41 H10         0.2690    2.7450   -0.3660 ha        1 31D      0.140000
     42 H11         1.2400    4.6410   -1.5920 ha        1 31D      0.151000
     43 H12         3.6350    0.2620   -1.5120 ha        1 31D      0.140000
     44 H13         4.6060    2.1710   -2.7520 ha        1 31D      0.151000
     45 H14         2.9960    6.0000   -1.6100 hn        1 31D      0.355500
     46 H15         5.4560    6.2370   -4.3430 ha        1 31D      0.169000
     47 H16         6.2240    8.4030   -5.2470 ha        1 31D      0.129000
     48 H17         5.1790   10.5430   -4.4920 ha        1 31D      0.131000
     49 H18         3.3240   10.4960   -2.8350 ha        1 31D      0.141000
     50 H19         1.0850    9.4600   -2.9500 hn        1 31D      0.311500
     51 H20        -1.2210    9.7730   -3.1580 ha        1 31D      0.125000
     52 H21        -3.4270    9.9620   -2.0090 ha        1 31D      0.155500
     53 H23        -1.6570    8.7310    1.7020 ha        1 31D      0.155500
     54 H24         0.5800    8.5280    0.6090 ha        1 31D      0.125000
@<TRIPOS>BOND
     1    1    2 1   
     2    1   32 1   
     3    1   33 1   
     4    1   34 1   
     5    2    3 1   
     6    2    4 1   
     7    2    5 1   
     8    3   35 1   
     9    3   36 1   
    10    3   37 1   
    11    4   38 1   
    12    4   39 1   
    13    4   40 1   
    14    5    6 ar  
    15    5    8 ar  
    16    6    7 ar  
    17    6   41 1   
    18    7   10 ar  
    19    7   42 1   
    20    8    9 ar  
    21    8   43 1   
    22    9   10 ar  
    23    9   44 1   
    24   10   11 1   
    25   11   12 2   
    26   11   13 1   
    27   13   14 1   
    28   13   45 1   
    29   14   15 ar  
    30   14   19 ar  
    31   15   16 ar  
    32   15   46 1   
    33   16   17 ar  
    34   16   47 1   
    35   17   18 ar  
    36   17   48 1   
    37   18   19 ar  
    38   18   49 1   
    39   19   20 1   
    40   20   21 2   
    41   20   22 1   
    42   22   23 1   
    43   22   50 1   
    44   23   24 ar  
    45   23   31 ar  
    46   24   25 ar  
    47   24   51 1   
    48   25   26 ar  
    49   25   52 1   
    50   26   27 1   
    51   26   30 ar  
    52   27   28 1   
    53   27   29 1   
    54   30   31 ar  
    55   30   53 1   
    56   31   54 1   
@<TRIPOS>SUBSTRUCTURE
     1 31D         1 TEMP              0 ****  ****    0 ROOT
