@<TRIPOS>MOLECULE
31F
   33    35     1     0     0
SMALL
bcc


@<TRIPOS>ATOM
      1 OAB        -0.0790    0.3180   -0.3970 o         1 31F     -0.564300
      2 OAD         1.5290   -0.2320    1.3130 o         1 31F     -0.564300
      3 CAE         1.7110   -1.3730   -0.9240 ca        1 31F     -0.556500
      4 CAF         1.1400   -1.6610   -2.1850 ca        1 31F      0.009000
      5 CAG         1.5790   -2.7310   -2.9510 ca        1 31F     -0.127000
      6 CAJ         2.7390   -2.2270   -0.4610 ca        1 31F      0.009000
      7 CAI         3.1840   -3.2990   -1.2190 ca        1 31F     -0.127000
      8 CAH         2.6080   -3.5580   -2.4730 ca        1 31F      0.016100
      9 CAK         3.0610   -4.7210   -3.2880 cc        1 31F      0.477500
     10 CAT         2.5630   -6.5610   -4.6390 ca        1 31F      0.148400
     11 CAS         1.6090   -7.3780   -5.2880 ca        1 31F     -0.101000
     12 CAR         2.0300   -8.4780   -6.0250 ca        1 31F     -0.091000
     13 CAQ         3.3880   -8.7950   -6.1360 ca        1 31F     -0.121000
     14 CAP         4.3440   -8.0060   -5.5050 ca        1 31F     -0.061000
     15 CAO         3.9410   -6.8940   -4.7590 ca        1 31F     -0.166600
     16 CAM         4.9440   -6.0500   -4.0850 c         1 31F      0.712100
     17 N10         2.2920    1.2130   -0.6400 n4        1 31F     -0.786500
     18 N1          4.4380   -4.9600   -3.3440 n         1 31F     -0.501400
     19 OAN         6.1730   -6.2160   -4.1140 o         1 31F     -0.588500
     20 N           2.1410   -5.4490   -3.8960 nd        1 31F     -0.571100
     21 S           1.1370   -0.1990   -0.0070 sy        1 31F      1.494200
     22 HAJ         3.1790   -2.0490    0.5390 ha        1 31F      0.172000
     23 HAF         0.3100   -1.0320   -2.5590 ha        1 31F      0.172000
     24 HAI         3.9690   -3.9610   -0.8130 ha        1 31F      0.188500
     25 HAG         1.1060   -2.9420   -3.9270 ha        1 31F      0.188500
     26 H1          5.0760   -4.3560   -2.8780 hn        1 31F      0.334500
     27 HAS         0.5360   -7.1430   -5.2070 ha        1 31F      0.159000
     28 HAR         1.2820   -9.1120   -6.5280 ha        1 31F      0.153000
     29 HAQ         3.7010   -9.6720   -6.7250 ha        1 31F      0.156000
     30 HAP         5.4190   -8.2420   -5.5820 ha        1 31F      0.170000
     31 H101        1.7370    1.9720   -1.0320 hn        1 31F      0.455467
     32 H102        2.8370    1.5940    0.1310 hn        1 31F      0.455467
     33 H103        2.9390    0.8970   -1.3550 hn        1 31F      0.455467
@<TRIPOS>BOND
     1    1   21 2   
     2    2   21 2   
     3    3    4 ar  
     4    3    6 ar  
     5    3   21 1   
     6    4    5 ar  
     7    4   23 1   
     8    5    8 ar  
     9    5   25 1   
    10    6    7 ar  
    11    6   22 1   
    12    7    8 ar  
    13    7   24 1   
    14    8    9 1   
    15    9   18 1   
    16    9   20 2   
    17   10   11 ar  
    18   10   15 ar  
    19   10   20 1   
    20   11   12 ar  
    21   11   27 1   
    22   12   13 ar  
    23   12   28 1   
    24   13   14 ar  
    25   13   29 1   
    26   14   15 ar  
    27   14   30 1   
    28   15   16 1   
    29   16   18 1   
    30   16   19 2   
    31   17   21 1   
    32   17   31 1   
    33   17   32 1   
    34   17   33 1   
    35   18   26 1   
@<TRIPOS>SUBSTRUCTURE
     1 31F         1 TEMP              0 ****  ****    0 ROOT
