@<TRIPOS>MOLECULE
31F
   32    28     1     0     0
SMALL
bcc


@<TRIPOS>ATOM
      1 OAB        -3.3710    4.4550    2.1380 o         1 31F     -0.653300
      2 OAD        -1.7450    4.4150    3.6500 o         1 31F     -0.653300
      3 CAE        -1.2380    3.0360    1.4370 c1        1 31F     -0.403200
      4 CAF        -1.9440    2.3780    0.4430 c1        1 31F     -0.035000
      5 CAG        -1.4160    1.2400   -0.1460 c1        1 31F     -0.035000
      6 CAJ        -0.0020    2.5560    1.8420 c1        1 31F      0.033500
      7 CAI         0.5260    1.4180    1.2540 c1        1 31F     -0.082500
      8 CAH        -0.1810    0.7600    0.2600 cg        1 31F     -0.031200
      9 CAK         0.3980   -0.4810   -0.3860 ce        1 31F      0.473800
     10 CAT         0.5590   -2.9870   -0.5330 ch        1 31F      0.089000
     11 CAS         0.2090   -4.2590   -0.0450 c1        1 31F     -0.035000
     12 CAR         0.6740   -5.3990   -0.6840 c1        1 31F     -0.035000
     13 CAQ         1.4840   -5.2860   -1.8060 c1        1 31F     -0.035000
     14 CAP         1.8300   -4.0310   -2.2890 c1        1 31F     -0.035000
     15 CAO         1.3600   -2.8750   -1.6420 cg        1 31F     -0.134200
     16 CAM         1.7170   -1.5120   -2.1770 c         1 31F      0.621300
     17 N10        -1.3060    5.8340    1.5840 n3        1 31F     -1.027700
     18 N1          1.2310   -0.3610   -1.5410 n         1 31F     -0.494400
     19 OAN         2.4630   -1.4100   -3.1310 o         1 31F     -0.583100
     20 N           0.0550   -1.7880    0.1260 nf        1 31F     -0.515700
     21 S          -1.9370    4.4610    2.2260 s6        1 31F      1.567900
     22 HAJ         0.4960    3.0190    2.5420 ha        1 31F      0.102500
     23 HAF        -2.8140    2.7170    0.1570 ha        1 31F      0.095500
     24 HAI         1.3960    1.0790    1.5390 ha        1 31F      0.090500
     25 HAG        -1.9140    0.7770   -0.8460 ha        1 31F      0.095500
     26 H1          1.4570    0.4650   -1.8560 hn        1 31F      0.339500
     27 HAS        -0.3600   -4.3390    0.7440 ha        1 31F      0.095500
     28 HAR         0.4310   -6.2820   -0.3440 ha        1 31F      0.095500
     29 HAQ         1.8110   -6.0890   -2.2560 ha        1 31F      0.095500
     30 HAP         2.3990   -3.9520   -3.0780 ha        1 31F      0.095500
     31 H101       -0.5160    6.1660    1.9010 hn        1 31F      0.449800
     32 H102       -1.7510    6.2730    0.9170 hn        1 31F      0.449800
@<TRIPOS>BOND
     1    1   21 2   
     2    2   21 2   
     3    3    6 3   
     4    3   21 1   
     5    4    5 3   
     6    4   23 1   
     7    5   25 1   
     8    6   22 1   
     9    7    8 3   
    10    7   24 1   
    11    8    9 1   
    12    9   18 1   
    13    9   20 2   
    14   10   15 3   
    15   10   20 1   
    16   11   12 3   
    17   11   27 1   
    18   12   28 1   
    19   13   14 3   
    20   13   29 1   
    21   14   30 1   
    22   15   16 1   
    23   16   18 1   
    24   16   19 2   
    25   17   21 1   
    26   17   31 1   
    27   17   32 1   
    28   18   26 1   
@<TRIPOS>SUBSTRUCTURE
     1 31F         1 TEMP              0 ****  ****    0 ROOT
