@<TRIPOS>MOLECULE
31F
   33    35     1     0     0
SMALL
bcc


@<TRIPOS>ATOM
      1 OAB         0.3190   -0.0540    0.5550 o         1 31F     -0.564300
      2 OAD         2.6560    0.4530    0.8560 o         1 31F     -0.564300
      3 CAE         2.0170   -1.3690   -0.7590 ca        1 31F     -0.554500
      4 CAF         1.0230   -2.2200   -1.2950 ca        1 31F      0.008500
      5 CAG         1.3560   -3.3570   -2.0140 ca        1 31F     -0.125500
      6 CAJ         3.3690   -1.7260   -0.9710 ca        1 31F      0.008500
      7 CAI         3.7120   -2.8620   -1.6870 ca        1 31F     -0.125500
      8 CAH         2.7060   -3.6850   -2.2180 ca        1 31F      0.014100
      9 CAK         3.0620   -4.8940   -3.0150 cc        1 31F      0.480500
     10 CAT         2.7500   -6.2310   -4.9040 ca        1 31F      0.149400
     11 CAS         2.0770   -6.4930   -6.1200 ca        1 31F     -0.104000
     12 CAR         2.4240   -7.6070   -6.8730 ca        1 31F     -0.091000
     13 CAQ         3.4330   -8.4800   -6.4510 ca        1 31F     -0.122000
     14 CAP         4.1080   -8.2410   -5.2590 ca        1 31F     -0.060000
     15 CAO         3.7740   -7.1250   -4.4850 ca        1 31F     -0.166600
     16 CAM         4.4820   -6.8640   -3.2180 c         1 31F      0.711100
     17 N10         1.5300    1.1900   -1.3060 n4        1 31F     -0.787500
     18 N1          4.0820   -5.7080   -2.5130 n         1 31F     -0.499400
     19 OAN         5.3830   -7.5620   -2.7320 o         1 31F     -0.585500
     20 N           2.4010   -5.1090   -4.1390 nd        1 31F     -0.580100
     21 S           1.6270   -0.0970    0.1250 sy        1 31F      1.493200
     22 HAJ         4.1690   -1.0920   -0.5410 ha        1 31F      0.172000
     23 HAF        -0.0440   -1.9830   -1.1190 ha        1 31F      0.172000
     24 HAI         4.7780   -3.1040   -1.8450 ha        1 31F      0.188000
     25 HAG         0.5610   -4.0040   -2.4280 ha        1 31F      0.188000
     26 H1          4.5050   -5.5060   -1.6360 hn        1 31F      0.338500
     27 HAS         1.2810   -5.8160   -6.4660 ha        1 31F      0.156000
     28 HAR         1.8950   -7.8070   -7.8200 ha        1 31F      0.152000
     29 HAQ         3.6920   -9.3580   -7.0630 ha        1 31F      0.156000
     30 HAP         4.9060   -8.9190   -4.9100 ha        1 31F      0.171000
     31 H101        0.6000    1.6020   -1.3480 hn        1 31F      0.456467
     32 H102        2.1960    1.9450   -1.1470 hn        1 31F      0.456467
     33 H103        1.7320    0.7810   -2.2130 hn        1 31F      0.456467
@<TRIPOS>BOND
     1    1   21 2   
     2    2   21 2   
     3    3    4 ar  
     4    3    6 ar  
     5    3   21 1   
     6    4    5 ar  
     7    4   23 1   
     8    5    8 ar  
     9    5   25 1   
    10    6    7 ar  
    11    6   22 1   
    12    7    8 ar  
    13    7   24 1   
    14    8    9 1   
    15    9   18 1   
    16    9   20 2   
    17   10   11 ar  
    18   10   15 ar  
    19   10   20 1   
    20   11   12 ar  
    21   11   27 1   
    22   12   13 ar  
    23   12   28 1   
    24   13   14 ar  
    25   13   29 1   
    26   14   15 ar  
    27   14   30 1   
    28   15   16 1   
    29   16   18 1   
    30   16   19 2   
    31   17   21 1   
    32   17   31 1   
    33   17   32 1   
    34   17   33 1   
    35   18   26 1   
@<TRIPOS>SUBSTRUCTURE
     1 31F         1 TEMP              0 ****  ****    0 ROOT
