@<TRIPOS>MOLECULE
31F
   33    35     1     0     0
SMALL
bcc


@<TRIPOS>ATOM
      1 OAB        -0.0680    0.3230   -0.3920 o         1 31F     -0.564300
      2 OAD         1.5490   -0.2240    1.3100 o         1 31F     -0.564300
      3 CAE         1.7200   -1.3690   -0.9240 ca        1 31F     -0.556500
      4 CAF         1.1430   -1.6600   -2.1820 ca        1 31F      0.009000
      5 CAG         1.5780   -2.7310   -2.9480 ca        1 31F     -0.127000
      6 CAJ         2.7510   -2.2220   -0.4650 ca        1 31F      0.009000
      7 CAI         3.1920   -3.2950   -1.2220 ca        1 31F     -0.127000
      8 CAH         2.6100   -3.5570   -2.4730 ca        1 31F      0.016100
      9 CAK         3.0600   -4.7220   -3.2880 cc        1 31F      0.477500
     10 CAT         2.5550   -6.5640   -4.6330 ca        1 31F      0.148400
     11 CAS         1.5980   -7.3830   -5.2760 ca        1 31F     -0.101000
     12 CAR         2.0170   -8.4840   -6.0130 ca        1 31F     -0.091000
     13 CAQ         3.3750   -8.8010   -6.1300 ca        1 31F     -0.121000
     14 CAP         4.3330   -8.0110   -5.5050 ca        1 31F     -0.061000
     15 CAO         3.9330   -6.8970   -4.7590 ca        1 31F     -0.166600
     16 CAM         4.9390   -6.0520   -4.0910 c         1 31F      0.712100
     17 N10         2.3010    1.2180   -0.6490 nz        1 31F     -0.786500
     18 N1          4.4360   -4.9610   -3.3500 ns        1 31F     -0.501400
     19 OAN         6.1680   -6.2170   -4.1260 o         1 31F     -0.588500
     20 N           2.1370   -5.4510   -3.8900 nd        1 31F     -0.571100
     21 S           1.1500   -0.1930   -0.0070 sy        1 31F      1.494200
     22 HAJ         3.1960   -2.0420    0.5320 ha        1 31F      0.172000
     23 HAF         0.3100   -1.0320   -2.5530 ha        1 31F      0.172000
     24 HAI         3.9800   -3.9550   -0.8190 ha        1 31F      0.188500
     25 HAG         1.1000   -2.9450   -3.9210 ha        1 31F      0.188500
     26 H1          5.0760   -4.3560   -2.8880 hn        1 31F      0.334500
     27 HAS         0.5260   -7.1480   -5.1910 ha        1 31F      0.159000
     28 HAR         1.2660   -9.1190   -6.5110 ha        1 31F      0.153000
     29 HAQ         3.6850   -9.6790   -6.7180 ha        1 31F      0.156000
     30 HAP         5.4080   -8.2460   -5.5860 ha        1 31F      0.170000
     31 H101        1.7440    1.9760   -1.0400 hn        1 31F      0.455467
     32 H102        2.8500    1.6010    0.1180 hn        1 31F      0.455467
     33 H103        2.9450    0.9000   -1.3670 hn        1 31F      0.455467
@<TRIPOS>BOND
     1    1   21 2   
     2    2   21 2   
     3    3    4 ar  
     4    3    6 ar  
     5    3   21 1   
     6    4    5 ar  
     7    4   23 1   
     8    5    8 ar  
     9    5   25 1   
    10    6    7 ar  
    11    6   22 1   
    12    7    8 ar  
    13    7   24 1   
    14    8    9 1   
    15    9   18 1   
    16    9   20 2   
    17   10   11 ar  
    18   10   15 ar  
    19   10   20 1   
    20   11   12 ar  
    21   11   27 1   
    22   12   13 ar  
    23   12   28 1   
    24   13   14 ar  
    25   13   29 1   
    26   14   15 ar  
    27   14   30 1   
    28   15   16 1   
    29   16   18 1   
    30   16   19 2   
    31   17   21 1   
    32   17   31 1   
    33   17   32 1   
    34   17   33 1   
    35   18   26 1   
@<TRIPOS>SUBSTRUCTURE
     1 31F         1 TEMP              0 ****  ****    0 ROOT
