@<TRIPOS>MOLECULE
31F
   32    34     1     0     0
SMALL
bcc


@<TRIPOS>ATOM
      1 OAB        -5.2130    0.8060   -1.0290 o         1 31F     -0.654300
      2 OAD        -5.2450   -1.3510    0.0620 o         1 31F     -0.654300
      3 CAE        -3.0810   -0.0600    0.0010 ca        1 31F     -0.361500
      4 CAF        -2.3520    0.9960   -0.5540 ca        1 31F     -0.024500
      5 CAG        -0.9590    0.9650   -0.5950 ca        1 31F     -0.124000
      6 CAJ        -2.3870   -1.1620    0.5110 ca        1 31F     -0.024500
      7 CAI        -0.9960   -1.2120    0.4760 ca        1 31F     -0.124000
      8 CAH        -0.2810   -0.1430   -0.0780 ca        1 31F     -0.084900
      9 CAK         1.2100   -0.1800   -0.1140 cc        1 31F      0.528500
     10 CAT         3.2900    0.8120    0.2660 ca        1 31F      0.176400
     11 CAS         4.0580    1.9170    0.7080 ca        1 31F     -0.119000
     12 CAR         5.4420    1.8550    0.6690 ca        1 31F     -0.095000
     13 CAQ         6.1030    0.7140    0.1970 ca        1 31F     -0.148000
     14 CAP         5.3720   -0.3810   -0.2410 ca        1 31F     -0.060000
     15 CAO         3.9730   -0.3400   -0.2100 ca        1 31F     -0.185600
     16 CAM         3.1850   -1.4960   -0.6750 c         1 31F      0.709100
     17 N10        -5.1020    0.6900    1.4240 n3        1 31F     -1.027700
     18 N1          1.7880   -1.3590   -0.6010 n         1 31F     -0.493400
     19 OAN         3.6590   -2.5580   -1.1140 o         1 31F     -0.617500
     20 N           1.8900    0.8730    0.3050 nd        1 31F     -0.607100
     21 S          -4.7800   -0.0210    0.0280 sy        1 31F      1.525200
     22 HAJ        -2.9540   -2.0130    0.9310 ha        1 31F      0.159000
     23 HAF        -2.8910    1.8610   -0.9830 ha        1 31F      0.159000
     24 HAI        -0.4700   -2.0830    0.8960 ha        1 31F      0.155000
     25 HAG        -0.3990    1.8080   -1.0280 ha        1 31F      0.155000
     26 H1          1.2080   -2.1040   -0.9160 hn        1 31F      0.341500
     27 HAS         3.5500    2.8190    1.0820 ha        1 31F      0.154000
     28 HAR         6.0330    2.7180    1.0150 ha        1 31F      0.139000
     29 HAQ         7.2030    0.6880    0.1750 ha        1 31F      0.142000
     30 HAP         5.8720   -1.2890   -0.6170 ha        1 31F      0.160000
     31 H101       -5.2390    0.1980    2.2710 hn        1 31F      0.450300
     32 H102       -5.2110    1.6670    1.5300 hn        1 31F      0.450300
@<TRIPOS>BOND
     1    1   21 2   
     2    2   21 2   
     3    3    4 ar  
     4    3    6 ar  
     5    3   21 1   
     6    4    5 ar  
     7    4   23 1   
     8    5    8 ar  
     9    5   25 1   
    10    6    7 ar  
    11    6   22 1   
    12    7    8 ar  
    13    7   24 1   
    14    8    9 1   
    15    9   18 1   
    16    9   20 2   
    17   10   11 ar  
    18   10   15 ar  
    19   10   20 1   
    20   11   12 ar  
    21   11   27 1   
    22   12   13 ar  
    23   12   28 1   
    24   13   14 ar  
    25   13   29 1   
    26   14   15 ar  
    27   14   30 1   
    28   15   16 1   
    29   16   18 1   
    30   16   19 2   
    31   17   21 1   
    32   17   31 1   
    33   17   32 1   
    34   18   26 1   
@<TRIPOS>SUBSTRUCTURE
     1 31F         1 TEMP              0 ****  ****    0 ROOT
