@<TRIPOS>MOLECULE
31G
   37    37     1     0     0
SMALL
bcc


@<TRIPOS>ATOM
      1 C1          1.5440   -0.6780   -1.3420 c2        1 31G     -0.427000
      2 C2          1.9060    0.5380   -0.6470 c2        1 31G     -0.100000
      3 C3          1.6360    0.7290    0.6510 c2        1 31G     -0.188000
      4 C4         -0.6450    0.8320    5.0120 c1        1 31G      0.167000
      5 C5          0.1370   -0.1640    5.2450 c2        1 31G     -1.093000
      6 C6          1.6870   -0.9610   -2.6160 c1        1 31G      0.152000
      7 S1          1.3770   -0.8800    4.1900 s6        1 31G      2.900000
      8 O1          0.7030   -1.2680    3.0150 o         1 31G     -1.065000
      9 O2          2.2910    0.1690    3.9240 o         1 31G     -1.065000
     10 C7          1.9660    1.9630    1.4060 c3        1 31G     -0.017000
     11 O3          3.1170    2.6590    0.8880 os        1 31G     -0.240000
     12 C8          4.3590    2.2520    1.2820 c2        1 31G      0.202000
     13 C9          4.5030    1.0860    2.2220 c3        1 31G     -0.184000
     14 C10         5.9010    0.5560    2.1970 c2        1 31G     -0.064000
     15 C11         6.8570    1.4320    1.9310 c1        1 31G     -0.375000
     16 C12         6.7210    2.7140    1.4820 c2        1 31G      0.201000
     17 C13         5.4310    2.9900    0.8210 c2        1 31G     -0.285000
     18 C14         5.4370    4.1440   -0.0960 c2        1 31G      0.230000
     19 N1          6.3720    5.0910   -0.0480 n2        1 31G     -0.265000
     20 C15         7.4460    4.9800    0.8820 c2        1 31G      0.200000
     21 N2          7.6420    3.7240    1.5700 na        1 31G     -0.323000
     22 N3          8.2300    6.0140    1.0610 n2        1 31G     -0.304000
     23 N4          4.4770    4.1950   -1.0970 nv        1 31G     -0.341000
     24 H1          1.0870   -1.4690   -0.6990 ha        1 31G      0.212000
     25 H2          2.4320    1.3050   -1.2400 ha        1 31G      0.119000
     26 H3          1.1210   -0.0410    1.2680 ha        1 31G      0.201000
     27 H4          0.1440   -0.7410    6.1840 h4        1 31G      0.233000
     28 H6          1.1520    2.7320    1.2690 h1        1 31G      0.143000
     29 H5          2.0980    1.7400    2.5030 h1        1 31G      0.143000
     30 H7          3.8010    0.2600    1.9060 hc        1 31G      0.171000
     31 H8          4.1520    1.3830    3.2540 hc        1 31G      0.171000
     32 H9          6.0460   -0.5200    2.3370 ha        1 31G      0.145000
     33 H11         8.4480    3.5780    2.1310 hn        1 31G      0.240000
     34 H10         8.9820    5.8690    1.7020 hn        1 31G      0.128000
     35 H12         4.3760    5.0430   -1.6050 hn        1 31G      0.221000
     36 H13         3.6470    3.6720   -0.9400 hn        1 31G      0.221000
     37 O4          1.9020   -1.9330    4.9540 o         1 31G     -1.065000
@<TRIPOS>BOND
     1    1    2 1   
     2    1    6 1   
     3    1   24 1   
     4    2    3 1   
     5    2   25 1   
     6    3   10 1   
     7    3   26 1   
     8    4    5 1   
     9    5    7 1   
    10    5   27 1   
    11    7    8 1   
    12    7    9 1   
    13    7   37 1   
    14   10   11 1   
    15   10   28 1   
    16   10   29 1   
    17   11   12 1   
    18   12   13 1   
    19   12   17 1   
    20   13   14 1   
    21   13   30 1   
    22   13   31 1   
    23   14   15 1   
    24   14   32 1   
    25   15   16 1   
    26   16   17 1   
    27   16   21 1   
    28   17   18 1   
    29   18   19 1   
    30   18   23 1   
    31   19   20 1   
    32   20   21 1   
    33   20   22 1   
    34   21   33 1   
    35   22   34 1   
    36   23   35 1   
    37   23   36 1   
@<TRIPOS>SUBSTRUCTURE
     1 31G         1 TEMP              0 ****  ****    0 ROOT
