@<TRIPOS>MOLECULE
31G
   37    37     1     0     0
SMALL
bcc


@<TRIPOS>ATOM
      1 C1         -0.1290    2.1370    1.4010 c2        1 31G     -0.453000
      2 C2          1.3090    2.0450    1.4400 c2        1 31G     -0.064000
      3 C3          1.9420    1.0450    2.0660 c2        1 31G     -0.187000
      4 C4         -0.5320   -3.2920    1.4980 c1        1 31G      0.169000
      5 C5         -0.9280   -2.9800    2.6830 c2        1 31G     -1.094000
      6 C6         -0.9310    3.0240    0.8750 c1        1 31G      0.122000
      7 S1         -0.4770   -1.5800    3.6830 s6        1 31G      2.903000
      8 O1         -0.9770   -0.4510    2.9970 o         1 31G     -1.065000
      9 O2         -1.1000   -1.8370    4.9150 o         1 31G     -1.065000
     10 C7          3.4090    0.8640    2.1610 c3        1 31G      0.018000
     11 O3          4.0530    1.8330    1.3020 os        1 31G     -0.235000
     12 C8          5.4140    1.9010    1.3290 c2        1 31G      0.175000
     13 C9          6.1810    0.9860    2.2550 c3        1 31G     -0.149000
     14 C10         7.6220    0.9290    1.8450 c2        1 31G     -0.147000
     15 C11         8.0870    2.0280    1.2830 c1        1 31G     -0.235000
     16 C12         7.4510    3.1460    0.8340 c2        1 31G      0.139000
     17 C13         6.0140    2.8670    0.5500 c2        1 31G     -0.283000
     18 C14         5.3670    3.8390   -0.3450 c2        1 31G      0.259000
     19 N1          5.9200    5.0420   -0.5830 n2        1 31G     -0.344000
     20 C15         7.2020    5.2830   -0.0320 c2        1 31G      0.204000
     21 N2          7.9780    4.4000    0.6500 n2        1 31G     -0.264000
     22 N3          7.7360    6.5510   -0.3010 nh        1 31G     -0.330000
     23 N4          4.2050    3.4910   -0.9900 nh        1 31G     -0.342000
     24 H1         -0.6690    1.2810    1.9240 ha        1 31G      0.288000
     25 H2          1.8650    2.8450    0.9230 ha        1 31G      0.104000
     26 H3          1.3820    0.2380    2.5920 ha        1 31G      0.209000
     27 H4         -1.6430   -3.5760    3.2740 h4        1 31G      0.231000
     28 H6          3.7540    1.0210    3.2180 h1        1 31G      0.103500
     29 H5          3.6930   -0.1670    1.8120 h1        1 31G      0.103500
     30 H7          6.0250    1.3420    3.3090 hc        1 31G      0.123000
     31 H8          5.7680   -0.0570    2.1770 hc        1 31G      0.123000
     32 H9          8.1540   -0.0210    1.9370 ha        1 31G      0.141000
     33 H11         8.5100    6.8300    0.2560 hn        1 31G      0.215500
     34 H10         7.0890    7.2630   -0.5450 hn        1 31G      0.215500
     35 H12         3.7160    4.1700   -1.5240 hn        1 31G      0.238000
     36 H13         3.6920    2.7130   -0.6460 hn        1 31G      0.238000
     37 O4          0.9330   -1.5710    3.7180 o         1 31G     -1.065000
@<TRIPOS>BOND
     1    1    2 1   
     2    1    6 1   
     3    1   24 1   
     4    2    3 1   
     5    2   25 1   
     6    3   10 1   
     7    3   26 1   
     8    4    5 1   
     9    5    7 1   
    10    5   27 1   
    11    7    8 1   
    12    7    9 1   
    13    7   37 1   
    14   10   11 1   
    15   10   28 1   
    16   10   29 1   
    17   11   12 1   
    18   12   13 1   
    19   12   17 1   
    20   13   14 1   
    21   13   30 1   
    22   13   31 1   
    23   14   15 1   
    24   14   32 1   
    25   15   16 1   
    26   16   17 1   
    27   16   21 1   
    28   17   18 1   
    29   18   19 1   
    30   18   23 1   
    31   19   20 1   
    32   20   21 1   
    33   20   22 1   
    34   22   33 1   
    35   22   34 1   
    36   23   35 1   
    37   23   36 1   
@<TRIPOS>SUBSTRUCTURE
     1 31G         1 TEMP              0 ****  ****    0 ROOT
