@<TRIPOS>MOLECULE
31I
   66    69     1     0     0
SMALL
bcc


@<TRIPOS>ATOM
      1 O30         0.3090   -0.8080   -0.2870 o         1 31I     -0.570100
      2 C16         0.5170    0.4120   -0.1890 c         1 31I      0.689300
      3 N17         1.3850    0.8790    0.8390 n         1 31I     -0.246800
      4 N18         1.5310    2.2030    1.0130 n2        1 31I     -0.439300
      5 C19         1.8990    2.6810    2.1730 ce        1 31I      0.380800
      6 C25         2.1160    1.8680    3.3660 ca        1 31I     -0.159900
      7 C26         2.3080    2.4180    4.6350 ca        1 31I     -0.099000
      8 C27         2.4370    1.5770    5.7390 ca        1 31I     -0.130000
      9 C28         2.3670    0.1920    5.5780 ca        1 31I     -0.116000
     10 C29         2.1790   -0.3630    4.3120 ca        1 31I     -0.121000
     11 C24         2.0650    0.4710    3.1980 ca        1 31I     -0.079300
     12 C20         1.9070   -0.1090    1.8120 c3        1 31I      0.130000
     13 C11         3.2580   -0.7380    1.3840 c3        1 31I     -0.068700
     14 C08         3.0720   -1.7060    0.2370 c3        1 31I     -0.093100
     15 C01         4.3120    0.2920    1.0490 c3        1 31I     -0.093100
     16 C15        -0.1420    1.4140   -1.0590 ce        1 31I     -0.191200
     17 C14         0.0920    1.6240   -2.3570 cf        1 31I     -0.048200
     18 C13         1.0850    0.9830   -3.2060 ca        1 31I     -0.046800
     19 C10         0.7840    0.7520   -4.5620 ca        1 31I      0.088100
     20 O11        -0.4170    1.2260   -5.0630 os        1 31I     -0.334900
     21 C12        -1.3110    0.2050   -5.5110 c3        1 31I      0.115700
     22 C07         1.7480    0.1500   -5.4040 ca        1 31I      0.102100
     23 O08         1.3530   -0.0600   -6.7110 os        1 31I     -0.322900
     24 C09         2.3470   -0.5730   -7.5920 c3        1 31I      0.111700
     25 C06         3.0000   -0.2070   -4.8970 ca        1 31I     -0.176000
     26 C05         3.3040    0.0400   -3.5530 ca        1 31I     -0.063300
     27 C04         4.6320   -0.3660   -3.0040 c3        1 31I      0.028200
     28 C03         5.7770    0.2880   -3.6780 ca        1 31I     -0.428900
     29 C32         6.6830   -0.4580   -4.4490 ca        1 31I      0.487200
     30 N33         7.7600    0.0490   -5.0630 nb        1 31I     -0.783000
     31 C34         7.9660    1.4170   -4.8890 ca        1 31I      0.898900
     32 N35         9.1350    1.9680   -5.4210 nh        1 31I     -0.930500
     33 N36         7.1270    2.2660   -4.1900 nb        1 31I     -0.821000
     34 C02         6.0500    1.6950   -3.5630 ca        1 31I      0.719200
     35 N01         5.2500    2.4970   -2.7610 nh        1 31I     -0.938500
     36 C31         2.3530    0.6330   -2.7220 ca        1 31I     -0.150000
     37 H1          2.0350    3.7750    2.2310 h4        1 31I      0.041800
     38 H2          2.3510    3.5110    4.7600 ha        1 31I      0.137000
     39 H3          2.5910    2.0060    6.7400 ha        1 31I      0.136000
     40 H4          2.4610   -0.4670    6.4540 ha        1 31I      0.136000
     41 H5          2.1250   -1.4550    4.1890 ha        1 31I      0.140000
     42 H6          1.1490   -0.9510    1.8610 h1        1 31I      0.090700
     43 H7          3.6110   -1.3250    2.2820 hc        1 31I      0.052700
     44 H8          4.0220   -2.2620    0.0500 hc        1 31I      0.040367
     45 H9          2.2610   -2.4400    0.4660 hc        1 31I      0.040367
     46 H10         2.7880   -1.1650   -0.7000 hc        1 31I      0.040367
     47 H11         4.0770    0.8140    0.0890 hc        1 31I      0.040367
     48 H12         5.3060   -0.2040    0.9370 hc        1 31I      0.040367
     49 H13         4.3820    1.0570    1.8600 hc        1 31I      0.040367
     50 H14        -0.9190    1.9970   -0.5330 ha        1 31I      0.154000
     51 H15        -0.5390    2.3610   -2.8960 ha        1 31I      0.152000
     52 H16        -1.5730   -0.4770   -4.6670 h1        1 31I      0.046033
     53 H17        -2.2080    0.7780   -5.8540 h1        1 31I      0.046033
     54 H18        -0.8580   -0.3690   -6.3540 h1        1 31I      0.046033
     55 H19         1.8230   -0.6030   -8.5810 h1        1 31I      0.046700
     56 H20         3.2310    0.1090   -7.6340 h1        1 31I      0.046700
     57 H21         2.6570   -1.5990   -7.2790 h1        1 31I      0.046700
     58 H22         3.7600   -0.6720   -5.5410 ha        1 31I      0.146000
     59 H23         4.6700   -0.1480   -1.8980 hc        1 31I      0.061200
     60 H24         4.7250   -1.4840   -3.1110 hc        1 31I      0.061200
     61 H25         6.5330   -1.5460   -4.5880 h4        1 31I      0.020100
     62 H26         9.5940    1.4430   -6.1280 hn        1 31I      0.427300
     63 H27         9.1680    2.9560   -5.5080 hn        1 31I      0.427300
     64 H28         4.3200    2.1730   -2.6170 hn        1 31I      0.424800
     65 H29         5.3630    3.4820   -2.8300 hn        1 31I      0.424800
     66 H30         2.5930    0.8270   -1.6630 ha        1 31I      0.149000
@<TRIPOS>BOND
     1    1    2 2   
     2    2    3 1   
     3    2   16 1   
     4    3    4 1   
     5    3   12 1   
     6    4    5 2   
     7    5    6 1   
     8    5   37 1   
     9    6    7 ar  
    10    6   11 ar  
    11    7    8 ar  
    12    7   38 1   
    13    8    9 ar  
    14    8   39 1   
    15    9   10 ar  
    16    9   40 1   
    17   10   11 ar  
    18   10   41 1   
    19   11   12 1   
    20   12   13 1   
    21   12   42 1   
    22   13   14 1   
    23   13   15 1   
    24   13   43 1   
    25   14   44 1   
    26   14   45 1   
    27   14   46 1   
    28   15   47 1   
    29   15   48 1   
    30   15   49 1   
    31   16   17 2   
    32   16   50 1   
    33   17   18 1   
    34   17   51 1   
    35   18   19 ar  
    36   18   36 ar  
    37   19   20 1   
    38   19   22 ar  
    39   20   21 1   
    40   21   52 1   
    41   21   53 1   
    42   21   54 1   
    43   22   23 1   
    44   22   25 ar  
    45   23   24 1   
    46   24   55 1   
    47   24   56 1   
    48   24   57 1   
    49   25   26 ar  
    50   25   58 1   
    51   26   27 1   
    52   26   36 ar  
    53   27   28 1   
    54   27   59 1   
    55   27   60 1   
    56   28   29 ar  
    57   28   34 ar  
    58   29   30 ar  
    59   29   61 1   
    60   30   31 ar  
    61   31   32 1   
    62   31   33 ar  
    63   32   62 1   
    64   32   63 1   
    65   33   34 ar  
    66   34   35 1   
    67   35   64 1   
    68   35   65 1   
    69   36   66 1   
@<TRIPOS>SUBSTRUCTURE
     1 31I         1 TEMP              0 ****  ****    0 ROOT
