@<TRIPOS>MOLECULE
31I
   66    69     1     0     0
SMALL
bcc


@<TRIPOS>ATOM
      1 O30         0.2590   -0.7830   -0.3680 o         1 31I     -0.570100
      2 C16         0.4700    0.4380   -0.2760 c         1 31I      0.689300
      3 N17         1.3040    0.9120    0.7760 n         1 31I     -0.246800
      4 N18         1.4510    2.2370    0.9400 n2        1 31I     -0.439300
      5 C19         1.7820    2.7260    2.1060 ce        1 31I      0.380800
      6 C25         1.9530    1.9260    3.3160 ca        1 31I     -0.159900
      7 C26         2.1030    2.4900    4.5840 ca        1 31I     -0.099000
      8 C27         2.1900    1.6610    5.7010 ca        1 31I     -0.130000
      9 C28         2.1170    0.2750    5.5530 ca        1 31I     -0.116000
     10 C29         1.9710   -0.2940    4.2880 ca        1 31I     -0.121000
     11 C24         1.9000    0.5280    3.1620 ca        1 31I     -0.079300
     12 C20         1.7870   -0.0670    1.7770 c3        1 31I      0.130000
     13 C11         3.1480   -0.7090    1.4040 c3        1 31I     -0.068700
     14 C08         2.9960   -1.6900    0.2630 c3        1 31I     -0.093100
     15 C01         4.2180    0.3130    1.0920 c3        1 31I     -0.093100
     16 C15        -0.1540    1.4330   -1.1800 ce        1 31I     -0.191200
     17 C14         0.1270    1.6280   -2.4710 cf        1 31I     -0.049200
     18 C13         1.1450    0.9730   -3.2780 ca        1 31I     -0.046800
     19 C10         0.8910    0.7330   -4.6420 ca        1 31I      0.088100
     20 O11        -0.2870    1.2110   -5.1900 os        1 31I     -0.334900
     21 C12        -1.1710    0.1920   -5.6610 c3        1 31I      0.115700
     22 C07         1.8810    0.1180   -5.4440 ca        1 31I      0.102100
     23 O08         1.5320   -0.1000   -6.7630 os        1 31I     -0.322900
     24 C09         2.5530   -0.6260   -7.6040 c3        1 31I      0.111700
     25 C06         3.1120   -0.2420   -4.8900 ca        1 31I     -0.176000
     26 C05         3.3690    0.0140   -3.5380 ca        1 31I     -0.062300
     27 C04         4.6740   -0.3970   -2.9390 c3        1 31I      0.028200
     28 C03         5.8470    0.2470   -3.5740 ca        1 31I     -0.428900
     29 C32         6.7740   -0.5090   -4.3090 ca        1 31I      0.487200
     30 N33         7.8750   -0.0120   -4.8860 nb        1 31I     -0.783000
     31 C34         8.0840    1.3560   -4.7120 ca        1 31I      0.898900
     32 N35         9.2750    1.8960   -5.2050 nv        1 31I     -0.930500
     33 N36         7.2270    2.2130   -4.0490 nb        1 31I     -0.821000
     34 C02         6.1240    1.6530   -3.4580 ca        1 31I      0.719200
     35 N01         5.3010    2.4650   -2.6890 nv        1 31I     -0.938500
     36 C31         2.3920    0.6200   -2.7470 ca        1 31I     -0.150000
     37 H1          1.9210    3.8200    2.1560 h4        1 31I      0.041800
     38 H2          2.1480    3.5830    4.6970 ha        1 31I      0.137000
     39 H3          2.3110    2.1000    6.7020 ha        1 31I      0.136000
     40 H4          2.1770   -0.3750    6.4390 ha        1 31I      0.136000
     41 H5          1.9150   -1.3870    4.1760 ha        1 31I      0.140000
     42 H6          1.0220   -0.9050    1.8100 h1        1 31I      0.090700
     43 H7          3.4680   -1.2860    2.3210 hc        1 31I      0.052700
     44 H8          3.9500   -2.2510    0.1150 hc        1 31I      0.040367
     45 H9          2.1750   -2.4170    0.4740 hc        1 31I      0.040367
     46 H10         2.7460   -1.1590   -0.6890 hc        1 31I      0.040367
     47 H11         5.2140   -0.1900    1.0210 hc        1 31I      0.040367
     48 H12         4.2650    1.0870    1.8960 hc        1 31I      0.040367
     49 H13         4.0190    0.8240    0.1190 hc        1 31I      0.040367
     50 H14        -0.9460    2.0250   -0.6870 ha        1 31I      0.154000
     51 H15        -0.4810    2.3620   -3.0390 ha        1 31I      0.152000
     52 H16        -2.0520    0.7680   -6.0420 h1        1 31I      0.046033
     53 H17        -1.4690   -0.4820   -4.8220 h1        1 31I      0.046033
     54 H18        -0.6930   -0.3930   -6.4840 h1        1 31I      0.046033
     55 H19         3.4420    0.0500   -7.6200 h1        1 31I      0.046700
     56 H20         2.8460   -1.6520   -7.2720 h1        1 31I      0.046700
     57 H21         2.0650   -0.6610   -8.6110 h1        1 31I      0.046700
     58 H22         3.8910   -0.7180   -5.5020 ha        1 31I      0.146000
     59 H23         4.7640   -1.5160   -3.0350 hc        1 31I      0.061200
     60 H24         4.6730   -0.1720   -1.8340 hc        1 31I      0.061200
     61 H25         6.6230   -1.5970   -4.4470 h4        1 31I      0.020100
     62 H26         9.3180    2.8840   -5.2960 hn        1 31I      0.427300
     63 H27         9.7560    1.3650   -5.8920 hn        1 31I      0.427300
     64 H28         5.4220    3.4490   -2.7600 hn        1 31I      0.424800
     65 H29         4.3640    2.1470   -2.5770 hn        1 31I      0.424800
     66 H30         2.5960    0.8210   -1.6820 ha        1 31I      0.149000
@<TRIPOS>BOND
     1    1    2 2   
     2    2    3 1   
     3    2   16 1   
     4    3    4 1   
     5    3   12 1   
     6    4    5 2   
     7    5    6 1   
     8    5   37 1   
     9    6    7 ar  
    10    6   11 ar  
    11    7    8 ar  
    12    7   38 1   
    13    8    9 ar  
    14    8   39 1   
    15    9   10 ar  
    16    9   40 1   
    17   10   11 ar  
    18   10   41 1   
    19   11   12 1   
    20   12   13 1   
    21   12   42 1   
    22   13   14 1   
    23   13   15 1   
    24   13   43 1   
    25   14   44 1   
    26   14   45 1   
    27   14   46 1   
    28   15   47 1   
    29   15   48 1   
    30   15   49 1   
    31   16   17 2   
    32   16   50 1   
    33   17   18 1   
    34   17   51 1   
    35   18   19 ar  
    36   18   36 ar  
    37   19   20 1   
    38   19   22 ar  
    39   20   21 1   
    40   21   52 1   
    41   21   53 1   
    42   21   54 1   
    43   22   23 1   
    44   22   25 ar  
    45   23   24 1   
    46   24   55 1   
    47   24   56 1   
    48   24   57 1   
    49   25   26 ar  
    50   25   58 1   
    51   26   27 1   
    52   26   36 ar  
    53   27   28 1   
    54   27   59 1   
    55   27   60 1   
    56   28   29 ar  
    57   28   34 ar  
    58   29   30 ar  
    59   29   61 1   
    60   30   31 ar  
    61   31   32 1   
    62   31   33 ar  
    63   32   62 1   
    64   32   63 1   
    65   33   34 ar  
    66   34   35 1   
    67   35   64 1   
    68   35   65 1   
    69   36   66 1   
@<TRIPOS>SUBSTRUCTURE
     1 31I         1 TEMP              0 ****  ****    0 ROOT
