@<TRIPOS>MOLECULE
31I
   68    71     1     0     0
SMALL
bcc


@<TRIPOS>ATOM
      1 O30         3.0220   -0.6940   -1.5500 o         1 31I     -0.643100
      2 C16         2.3730    0.1430   -0.8870 c         1 31I      0.704300
      3 N17         2.9740    0.7870    0.2520 n         1 31I     -0.225800
      4 N18         4.3280    0.7650    0.3070 n2        1 31I     -0.590300
      5 C19         4.9570    1.1920    1.3700 ce        1 31I      0.464800
      6 C25         4.2950    1.6720    2.5750 ca        1 31I     -0.203900
      7 C26         4.9850    2.2660    3.6350 ca        1 31I     -0.087000
      8 C27         4.2740    2.7460    4.7340 ca        1 31I     -0.120000
      9 C28         2.8820    2.6370    4.7720 ca        1 31I     -0.079000
     10 C29         2.1900    2.0320    3.7200 ca        1 31I     -0.118000
     11 C24         2.8950    1.5380    2.6220 ca        1 31I     -0.066300
     12 C20         2.1750    0.8100    1.5080 c3        1 31I      0.127000
     13 C11         1.7430   -0.5790    2.0470 c3        1 31I     -0.092700
     14 C08         0.5400   -1.1250    1.3120 c3        1 31I     -0.103100
     15 C01         2.8690   -1.5880    2.0460 c3        1 31I     -0.103100
     16 C15         1.0340    0.6120   -1.3000 ce        1 31I     -0.241200
     17 C14         0.6250    0.6650   -2.5780 cf        1 31I      0.016800
     18 C13         1.4020    0.3180   -3.7600 ca        1 31I     -0.090800
     19 C10         0.8180   -0.5110   -4.7440 ca        1 31I      0.186100
     20 O11        -0.4740   -0.8670   -4.4860 os        1 31I     -0.315900
     21 C12        -1.1820   -1.6800   -5.4260 c3        1 31I      0.120700
     22 C07         1.6040   -0.9030   -5.8670 ca        1 31I      0.097100
     23 O08         0.9880   -1.7220   -6.7840 os        1 31I     -0.319900
     24 C09         1.7400   -2.0810   -7.9440 c3        1 31I      0.106700
     25 C06         2.9210   -0.4670   -5.9850 ca        1 31I     -0.153000
     26 C05         3.4820    0.3830   -5.0150 ca        1 31I     -0.151300
     27 C04         4.8940    0.8080   -5.2310 c3        1 31I     -0.015800
     28 C03         5.4350    1.7850   -4.2550 ca        1 31I     -0.174900
     29 C32         5.7250    3.1180   -4.6840 ca        1 31I      0.485200
     30 N33         6.2750    4.0440   -3.8940 nb        1 31I     -0.617000
     31 C34         6.5610    3.6340   -2.6060 ca        1 31I      0.714900
     32 N35         7.1870    4.6580   -1.7200 n4        1 31I     -0.813300
     33 N36         6.3290    2.4070   -2.0650 nb        1 31I     -0.649000
     34 C02         5.7480    1.4900   -2.9040 ca        1 31I      0.529200
     35 N01         5.4380    0.1730   -2.3330 n4        1 31I     -0.861300
     36 C31         2.7120    0.7870   -3.9320 ca        1 31I     -0.131000
     37 H1          6.0620    1.1870    1.3290 h4        1 31I      0.029800
     38 H2          6.0820    2.3470    3.6070 ha        1 31I      0.138000
     39 H3          4.8110    3.2080    5.5770 ha        1 31I      0.160000
     40 H4          2.3240    3.0230    5.6410 ha        1 31I      0.163000
     41 H5          1.0930    1.9400    3.7640 ha        1 31I      0.155000
     42 H6          1.2410    1.3980    1.2530 h1        1 31I      0.086700
     43 H7          1.4330   -0.4030    3.1210 hc        1 31I      0.081700
     44 H8          0.7940   -1.3910    0.2570 hc        1 31I      0.047533
     45 H9         -0.2970   -0.3860    1.3100 hc        1 31I      0.047533
     46 H10         0.1830   -2.0550    1.8220 hc        1 31I      0.047533
     47 H11         3.1270   -1.9040    1.0050 hc        1 31I      0.047533
     48 H12         2.5590   -2.4980    2.6160 hc        1 31I      0.047533
     49 H13         3.7800   -1.1610    2.5320 hc        1 31I      0.047533
     50 H14         0.3390    0.9040   -0.4940 ha        1 31I      0.169000
     51 H15        -0.4200    0.9710   -2.7960 ha        1 31I      0.175000
     52 H16        -2.1940   -1.7720   -4.9530 h1        1 31I      0.069367
     53 H17        -0.6910   -2.6780   -5.5220 h1        1 31I      0.069367
     54 H18        -1.2460   -1.1670   -6.4150 h1        1 31I      0.069367
     55 H19         1.0140   -2.7060   -8.5270 h1        1 31I      0.061367
     56 H20         2.6360   -2.6820   -7.6570 h1        1 31I      0.061367
     57 H21         2.0320   -1.1720   -8.5210 h1        1 31I      0.061367
     58 H22         3.5340   -0.7800   -6.8450 ha        1 31I      0.156000
     59 H23         5.5550   -0.1080   -5.2290 hc        1 31I      0.096200
     60 H24         4.9720    1.2480   -6.2690 hc        1 31I      0.096200
     61 H25         5.4930    3.4450   -5.7250 h4        1 31I      0.107100
     62 H26         8.0710    4.9770   -2.1460 hn        1 31I      0.495800
     63 H27         7.3760    4.2660   -0.7860 hn        1 31I      0.495800
     64 H28         4.6570   -0.2620   -2.8720 hn        1 31I      0.508800
     65 H29         5.0970    0.2550   -1.3240 hn        1 31I      0.508800
     66 H30         3.1050    1.4930   -3.1840 ha        1 31I      0.106000
     67 H353        6.5450    5.4610   -1.6330 hn        1 31I      0.495800
     68 H013        6.2650   -0.4300   -2.3650 hn        1 31I      0.508800
@<TRIPOS>BOND
     1    1    2 2   
     2    2    3 1   
     3    2   16 1   
     4    3    4 1   
     5    3   12 1   
     6    4    5 2   
     7    5    6 1   
     8    5   37 1   
     9    6    7 ar  
    10    6   11 ar  
    11    7    8 ar  
    12    7   38 1   
    13    8    9 ar  
    14    8   39 1   
    15    9   10 ar  
    16    9   40 1   
    17   10   11 ar  
    18   10   41 1   
    19   11   12 1   
    20   12   13 1   
    21   12   42 1   
    22   13   14 1   
    23   13   15 1   
    24   13   43 1   
    25   14   44 1   
    26   14   45 1   
    27   14   46 1   
    28   15   47 1   
    29   15   48 1   
    30   15   49 1   
    31   16   17 2   
    32   16   50 1   
    33   17   18 1   
    34   17   51 1   
    35   18   19 ar  
    36   18   36 ar  
    37   19   20 1   
    38   19   22 ar  
    39   20   21 1   
    40   21   52 1   
    41   21   53 1   
    42   21   54 1   
    43   22   23 1   
    44   22   25 ar  
    45   23   24 1   
    46   24   55 1   
    47   24   56 1   
    48   24   57 1   
    49   25   26 ar  
    50   25   58 1   
    51   26   27 1   
    52   26   36 ar  
    53   27   28 1   
    54   27   59 1   
    55   27   60 1   
    56   28   29 ar  
    57   28   34 ar  
    58   29   30 ar  
    59   29   61 1   
    60   30   31 ar  
    61   31   32 1   
    62   31   33 ar  
    63   32   62 1   
    64   32   63 1   
    65   32   67 1   
    66   33   34 ar  
    67   34   35 1   
    68   35   64 1   
    69   35   65 1   
    70   35   68 1   
    71   36   66 1   
@<TRIPOS>SUBSTRUCTURE
     1 31I         1 TEMP              0 ****  ****    0 ROOT
