@<TRIPOS>MOLECULE
31I
   66    69     1     0     0
SMALL
bcc


@<TRIPOS>ATOM
      1 O30         2.7700   -2.5590    0.4650 o         1 31I     -0.587100
      2 C16         2.4740   -1.4680   -0.0560 c         1 31I      0.691300
      3 N17         3.5210   -0.5540   -0.3590 n         1 31I     -0.238800
      4 N18         3.2140    0.7000   -0.7250 n2        1 31I     -0.439300
      5 C19         4.0800    1.6670   -0.5700 ce        1 31I      0.377800
      6 C25         5.3910    1.5060    0.0510 ca        1 31I     -0.158900
      7 C26         6.2110    2.5860    0.3850 ca        1 31I     -0.100000
      8 C27         7.4210    2.3550    1.0380 ca        1 31I     -0.131000
      9 C28         7.8060    1.0540    1.3640 ca        1 31I     -0.116000
     10 C29         6.9920   -0.0280    1.0300 ca        1 31I     -0.121000
     11 C24         5.7860    0.1910    0.3610 ca        1 31I     -0.077300
     12 C20         4.9090   -0.9690   -0.0480 c3        1 31I      0.130000
     13 C11         5.5940   -1.7220   -1.2180 c3        1 31I     -0.067700
     14 C08         4.9830   -3.0910   -1.4190 c3        1 31I     -0.091600
     15 C01         5.5840   -0.9380   -2.5110 c3        1 31I     -0.091600
     16 C15         1.0770   -1.1040   -0.3920 ce        1 31I     -0.210200
     17 C14         0.0600   -1.6310    0.3080 cf        1 31I     -0.038200
     18 C13        -1.3450   -1.3530    0.0570 ca        1 31I     -0.054800
     19 C10        -2.3240   -2.2200    0.5790 ca        1 31I      0.093100
     20 O11        -1.9220   -3.2440    1.4200 os        1 31I     -0.330900
     21 C12        -2.1630   -4.5570    0.9100 c3        1 31I      0.115700
     22 C07        -3.6940   -1.9650    0.3340 ca        1 31I      0.100100
     23 O08        -4.5770   -2.8890    0.8580 os        1 31I     -0.321900
     24 C09        -5.9600   -2.5760    0.7330 c3        1 31I      0.111700
     25 C06        -4.0790   -0.8470   -0.4090 ca        1 31I     -0.174000
     26 C05        -3.1070    0.0270   -0.9080 ca        1 31I     -0.067300
     27 C04        -3.5180    1.2150   -1.7150 c3        1 31I      0.032200
     28 C03        -4.4560    2.1170   -1.0080 ca        1 31I     -0.431900
     29 C32        -5.7720    2.2930   -1.4630 ca        1 31I      0.488200
     30 N33        -6.6670    3.1170   -0.9060 nb        1 31I     -0.782000
     31 C34        -6.2160    3.8430    0.1970 ca        1 31I      0.900900
     32 N35        -7.0810    4.7930    0.7430 nh        1 31I     -0.932500
     33 N36        -4.9610    3.7280    0.7650 nb        1 31I     -0.821000
     34 C02        -4.0750    2.8860    0.1460 ca        1 31I      0.719200
     35 N01        -2.7720    2.8290    0.6220 nh        1 31I     -0.937500
     36 C31        -1.7550   -0.2280   -0.6740 ca        1 31I     -0.149000
     37 H1          3.7670    2.6650   -0.9250 h4        1 31I      0.040800
     38 H2          5.8990    3.6110    0.1370 ha        1 31I      0.137000
     39 H3          8.0710    3.2020    1.3020 ha        1 31I      0.136000
     40 H4          8.7580    0.8790    1.8880 ha        1 31I      0.136000
     41 H5          7.2990   -1.0530    1.2900 ha        1 31I      0.140000
     42 H6          4.8480   -1.6930    0.8240 h1        1 31I      0.093700
     43 H7          6.6670   -1.8590   -0.8950 hc        1 31I      0.050700
     44 H8          3.9370   -3.0070   -1.8020 hc        1 31I      0.039700
     45 H9          5.5850   -3.6720   -2.1580 hc        1 31I      0.039700
     46 H10         4.9490   -3.6530   -0.4540 hc        1 31I      0.039700
     47 H11         5.9370    0.1070   -2.3370 hc        1 31I      0.039700
     48 H12         6.2610   -1.4250   -3.2540 hc        1 31I      0.039700
     49 H13         4.5580   -0.8980   -2.9490 hc        1 31I      0.039700
     50 H14         0.9260   -0.4140   -1.2370 ha        1 31I      0.157000
     51 H15         0.2590   -2.3430    1.1340 ha        1 31I      0.166000
     52 H16        -3.2560   -4.7230    0.7540 h1        1 31I      0.047033
     53 H17        -1.6010   -4.7110   -0.0420 h1        1 31I      0.047033
     54 H18        -1.7680   -5.2230    1.7180 h1        1 31I      0.047033
     55 H19        -6.1910   -1.5950    1.2140 h1        1 31I      0.047367
     56 H20        -6.2650   -2.5700   -0.3410 h1        1 31I      0.047367
     57 H21        -6.4630   -3.4130    1.2820 h1        1 31I      0.047367
     58 H22        -5.1410   -0.6320   -0.6010 ha        1 31I      0.147000
     59 H23        -2.6070    1.7970   -2.0270 hc        1 31I      0.058700
     60 H24        -4.0020    0.8410   -2.6620 hc        1 31I      0.058700
     61 H25        -6.1380    1.7290   -2.3420 h4        1 31I      0.020100
     62 H26        -8.0440    4.7080    0.5160 hn        1 31I      0.429300
     63 H27        -6.8620    5.1400    1.6470 hn        1 31I      0.429300
     64 H28        -2.2770    1.9890    0.4210 hn        1 31I      0.423800
     65 H29        -2.5840    3.2420    1.5070 hn        1 31I      0.423800
     66 H30        -0.9950    0.4630   -1.0730 ha        1 31I      0.143000
@<TRIPOS>BOND
     1    1    2 2   
     2    2    3 1   
     3    2   16 1   
     4    3    4 1   
     5    3   12 1   
     6    4    5 2   
     7    5    6 1   
     8    5   37 1   
     9    6    7 ar  
    10    6   11 ar  
    11    7    8 ar  
    12    7   38 1   
    13    8    9 ar  
    14    8   39 1   
    15    9   10 ar  
    16    9   40 1   
    17   10   11 ar  
    18   10   41 1   
    19   11   12 1   
    20   12   13 1   
    21   12   42 1   
    22   13   14 1   
    23   13   15 1   
    24   13   43 1   
    25   14   44 1   
    26   14   45 1   
    27   14   46 1   
    28   15   47 1   
    29   15   48 1   
    30   15   49 1   
    31   16   17 2   
    32   16   50 1   
    33   17   18 1   
    34   17   51 1   
    35   18   19 ar  
    36   18   36 ar  
    37   19   20 1   
    38   19   22 ar  
    39   20   21 1   
    40   21   52 1   
    41   21   53 1   
    42   21   54 1   
    43   22   23 1   
    44   22   25 ar  
    45   23   24 1   
    46   24   55 1   
    47   24   56 1   
    48   24   57 1   
    49   25   26 ar  
    50   25   58 1   
    51   26   27 1   
    52   26   36 ar  
    53   27   28 1   
    54   27   59 1   
    55   27   60 1   
    56   28   29 ar  
    57   28   34 ar  
    58   29   30 ar  
    59   29   61 1   
    60   30   31 ar  
    61   31   32 1   
    62   31   33 ar  
    63   32   62 1   
    64   32   63 1   
    65   33   34 ar  
    66   34   35 1   
    67   35   64 1   
    68   35   65 1   
    69   36   66 1   
@<TRIPOS>SUBSTRUCTURE
     1 31I         1 TEMP              0 ****  ****    0 ROOT
