@<TRIPOS>MOLECULE
31I
   66    56     1     0     0
SMALL
bcc


@<TRIPOS>ATOM
      1 O30         0.8590   -0.7460    0.3270 o         1 31I     -0.339000
      2 C16         2.0580   -0.7800    0.3420 c1        1 31I      0.368000
      3 N17         2.7650   -0.7820    1.6140 n2        1 31I     -0.283000
      4 N18         4.1620   -0.5770    1.6410 n2        1 31I     -0.013000
      5 C19         4.8010   -0.0940    2.8510 c1        1 31I     -0.125000
      6 C25         3.9830    0.1630    4.0820 c1        1 31I     -0.072000
      7 C26         4.5250    1.0810    5.0450 c2        1 31I     -0.101000
      8 C27         3.7180    1.6590    5.9570 c1        1 31I     -0.130000
      9 C28         2.3810    1.3710    5.9670 c1        1 31I     -0.119000
     10 C29         1.8500    0.4790    5.0330 c1        1 31I     -0.119000
     11 C24         2.6840   -0.1180    4.0900 c1        1 31I     -0.066000
     12 C20         2.0230   -0.7450    2.8250 c2        1 31I      0.055000
     13 C11         1.6120   -2.2430    3.1730 c3        1 31I     -0.116000
     14 C08         2.7580   -2.9290    3.9070 c3        1 31I     -0.210500
     15 C01         0.4140   -2.2420    4.0200 c3        1 31I     -0.210500
     16 C15         2.8410   -0.6160   -0.9630 c2        1 31I     -0.181000
     17 C14         2.1640   -0.3840   -2.1580 c1        1 31I     -0.048000
     18 C13         0.6300   -0.2960   -2.1710 c1        1 31I     -0.072000
     19 C10        -0.1300   -1.4110   -2.5650 c1        1 31I      0.094000
     20 O11         0.5190   -2.5810   -3.0160 o         1 31I     -0.223000
     21 C12         0.6460   -2.6600   -4.4520 c3        1 31I     -0.069500
     22 C07        -1.5130   -1.3360   -2.5820 c1        1 31I     -0.020000
     23 O08        -2.2830   -2.4440   -3.0780 o         1 31I     -0.223000
     24 C09        -2.9900   -3.1790   -2.0470 c3        1 31I     -0.069500
     25 C06        -2.1620   -0.1380   -2.2040 c2        1 31I     -0.110000
     26 C05        -1.4120    0.9610   -1.8150 c1        1 31I     -0.095000
     27 C04        -2.1090    2.3280   -1.5510 c3        1 31I     -0.052000
     28 C03        -3.1100    2.6510   -2.7120 c1        1 31I     -0.281000
     29 C32        -2.7200    2.5130   -4.0040 c1        1 31I      0.028000
     30 N33        -3.5470    2.9260   -5.0150 n1        1 31I     -0.247000
     31 C34        -4.7400    3.4650   -4.7290 c1        1 31I      0.171000
     32 N35        -5.5440    3.9970   -5.7720 n3        1 31I     -0.323000
     33 N36        -5.1420    3.6070   -3.3950 n1        1 31I     -0.290000
     34 C02        -4.3460    3.2100   -2.4160 c1        1 31I      0.178000
     35 N01        -4.7790    3.3350   -1.0130 n3        1 31I     -0.335000
     36 C31        -0.0030    0.8810   -1.7990 c1        1 31I     -0.078000
     37 H1          5.7330    0.0430    2.8700 ha        1 31I      0.171000
     38 H2          5.4770    1.2880    5.0380 ha        1 31I      0.137000
     39 H3          4.0740    2.2590    6.5850 ha        1 31I      0.135000
     40 H4          1.8010    1.7870    6.6230 ha        1 31I      0.137500
     41 H5          0.9450    0.2850    5.0390 ha        1 31I      0.137500
     42 H6          1.1640   -0.2270    2.6410 h4        1 31I      0.124000
     43 H7          1.4060   -2.7610    2.2840 hc        1 31I      0.110000
     44 H8          2.5500   -3.8590    4.0210 hc        1 31I      0.077333
     45 H9          3.5570   -2.8420    3.4000 hc        1 31I      0.077333
     46 H10         2.8840   -2.5160    4.7770 hc        1 31I      0.077333
     47 H11         0.1520   -1.2960    4.2260 hc        1 31I      0.077333
     48 H12         0.6000   -2.7110    4.8400 hc        1 31I      0.077333
     49 H13        -0.3080   -2.6810    3.5570 hc        1 31I      0.077333
     50 H14         3.8480   -0.6770   -0.9560 ha        1 31I      0.156000
     51 H15         2.6620   -0.2790   -2.9820 ha        1 31I      0.148000
     52 H16         0.3160   -1.8040   -4.8650 h1        1 31I      0.084667
     53 H17         1.5580   -2.7930   -4.6830 h1        1 31I      0.084667
     54 H18         0.1110   -3.4130   -4.7870 h1        1 31I      0.084667
     55 H19        -3.4910   -3.9490   -2.4660 h1        1 31I      0.084667
     56 H20        -3.5800   -2.6250   -1.6290 h1        1 31I      0.084667
     57 H21        -2.3490   -3.5220   -1.3950 h1        1 31I      0.084667
     58 H22        -3.1510   -0.0850   -2.2150 ha        1 31I      0.146000
     59 H23        -2.5760    2.2870   -0.7440 hc        1 31I      0.089000
     60 H24        -1.4880    2.9750   -1.5040 hc        1 31I      0.089000
     61 H25        -1.8810    2.1350   -4.2060 ha        1 31I      0.171000
     62 H26        -5.3380    3.8070   -6.6630 hn        1 31I      0.218500
     63 H27        -6.2430    4.4660   -5.5810 hn        1 31I      0.218500
     64 H28        -4.2060    3.0390   -0.3110 hn        1 31I      0.210500
     65 H29        -5.6210    3.6870   -0.8110 hn        1 31I      0.210500
     66 H30         0.5290    1.6560   -1.5210 ha        1 31I      0.147000
@<TRIPOS>BOND
     1    1    2 1   
     2    2   16 1   
     3    3    4 1   
     4    3   12 1   
     5    4    5 1   
     6    5   37 1   
     7    6    7 1   
     8    6   11 1   
     9    7    8 1   
    10    7   38 1   
    11    8   39 1   
    12    9   10 1   
    13    9   40 1   
    14   10   41 1   
    15   12   13 1   
    16   12   42 1   
    17   13   14 1   
    18   13   15 1   
    19   13   43 1   
    20   14   44 1   
    21   14   45 1   
    22   14   46 1   
    23   15   47 1   
    24   15   48 1   
    25   15   49 1   
    26   16   17 1   
    27   16   50 1   
    28   17   51 1   
    29   18   36 1   
    30   19   22 1   
    31   20   21 1   
    32   21   52 1   
    33   21   53 1   
    34   21   54 1   
    35   22   25 1   
    36   23   24 1   
    37   24   55 1   
    38   24   56 1   
    39   24   57 1   
    40   25   26 1   
    41   25   58 1   
    42   26   27 1   
    43   27   28 1   
    44   27   59 1   
    45   27   60 1   
    46   28   34 1   
    47   29   30 1   
    48   29   61 1   
    49   31   32 1   
    50   31   33 1   
    51   32   62 1   
    52   32   63 1   
    53   34   35 1   
    54   35   64 1   
    55   35   65 1   
    56   36   66 1   
@<TRIPOS>SUBSTRUCTURE
     1 31I         1 TEMP              0 ****  ****    0 ROOT
