@<TRIPOS>MOLECULE
31J
   45    46     1     0     0
SMALL
bcc


@<TRIPOS>ATOM
      1 C21         0.0060   -0.1260    0.1200 ca        1 31J      0.155100
      2 C23        -0.2820   -0.4200   -2.2300 c         1 31J      0.722800
      3 C01         4.5750    2.8940   -9.4290 c3        1 31J      0.118700
      4 O02         3.8550    3.0690   -8.2210 os        1 31J     -0.425600
      5 C03         3.5040    1.8270   -7.6140 c3        1 31J      0.125400
      6 C04         2.7110    2.1860   -6.3620 c3        1 31J      0.128400
      7 O05         2.5580    0.9670   -5.6370 os        1 31J     -0.430600
      8 C06         1.8140    1.1510   -4.4340 c3        1 31J      0.135400
      9 C07         1.6050   -0.2400   -3.8490 c3        1 31J     -0.038200
     10 C08         1.1430   -0.1690   -2.4370 cc        1 31J     -0.204400
     11 C09         1.9520    0.0880   -1.3730 cd        1 31J      0.050600
     12 C10         3.4050    0.3500   -1.5130 c3        1 31J     -0.077900
     13 C11         1.3830    0.1110   -0.0390 ca        1 31J     -0.148800
     14 C12         2.1600    0.3650    1.1080 ca        1 31J     -0.120000
     15 C13         1.5640    0.3740    2.3580 ca        1 31J      0.023100
     16 O14         2.2240    0.6400    3.5480 os        1 31J     -0.347900
     17 C15         3.6440    0.5550    3.5020 c3        1 31J      0.120700
     18 C16         0.1700    0.1330    2.5060 ca        1 31J      0.153100
     19 O17        -0.4430    0.1450    3.7320 oh        1 31J     -0.484100
     20 C18        -0.6270   -0.1190    1.3850 ca        1 31J     -0.099300
     21 C19        -2.0810   -0.3640    1.5070 c3        1 31J     -0.041800
     22 O22        -0.8250   -0.3860   -0.9490 os        1 31J     -0.317200
     23 O24        -1.1550   -0.6780   -3.0590 o         1 31J     -0.570500
     24 H1          5.5330    2.3480   -9.2420 h1        1 31J      0.034033
     25 H2          3.9600    2.3380  -10.1780 h1        1 31J      0.034033
     26 H3          4.7800    3.9350   -9.7840 h1        1 31J      0.034033
     27 H4          4.4310    1.2550   -7.3470 h1        1 31J      0.040200
     28 H5          2.8820    1.2160   -8.3180 h1        1 31J      0.040200
     29 H6          1.7060    2.6030   -6.6330 h1        1 31J      0.041200
     30 H7          3.2680    2.9350   -5.7400 h1        1 31J      0.041200
     31 H8          0.8310    1.6430   -4.6590 h1        1 31J      0.034200
     32 H9          2.4020    1.8030   -3.7330 h1        1 31J      0.034200
     33 H10         0.8450   -0.7840   -4.4740 hc        1 31J      0.076700
     34 H11         2.5630   -0.8210   -3.9180 hc        1 31J      0.076700
     35 H12         3.9860   -0.4140   -0.9390 hc        1 31J      0.060033
     36 H13         3.7370    0.3140   -2.5800 hc        1 31J      0.060033
     37 H14         3.6490    1.3640   -1.1070 hc        1 31J      0.060033
     38 H15         3.2380    0.5550    1.0030 ha        1 31J      0.146000
     39 H16         4.0610    1.4020    2.9040 h1        1 31J      0.047367
     40 H17         3.9730   -0.4240    3.0760 h1        1 31J      0.047367
     41 H18         3.9460    0.6450    4.5760 h1        1 31J      0.047367
     42 H19         0.2380    0.2790    4.4120 ho        1 31J      0.443000
     43 H20        -2.4120   -1.1310    0.7630 hc        1 31J      0.058700
     44 H21        -2.6420    0.5830    1.3040 hc        1 31J      0.058700
     45 H22        -2.3380   -0.7160    2.5370 hc        1 31J      0.058700
@<TRIPOS>BOND
     1    1   13 ar  
     2    1   20 ar  
     3    1   22 1   
     4    2   10 1   
     5    2   22 1   
     6    2   23 2   
     7    3    4 1   
     8    3   24 1   
     9    3   25 1   
    10    3   26 1   
    11    4    5 1   
    12    5    6 1   
    13    5   27 1   
    14    5   28 1   
    15    6    7 1   
    16    6   29 1   
    17    6   30 1   
    18    7    8 1   
    19    8    9 1   
    20    8   31 1   
    21    8   32 1   
    22    9   10 1   
    23    9   33 1   
    24    9   34 1   
    25   10   11 2   
    26   11   12 1   
    27   11   13 1   
    28   12   35 1   
    29   12   36 1   
    30   12   37 1   
    31   13   14 ar  
    32   14   15 ar  
    33   14   38 1   
    34   15   16 1   
    35   15   18 ar  
    36   16   17 1   
    37   17   39 1   
    38   17   40 1   
    39   17   41 1   
    40   18   19 1   
    41   18   20 ar  
    42   19   42 1   
    43   20   21 1   
    44   21   43 1   
    45   21   44 1   
    46   21   45 1   
@<TRIPOS>SUBSTRUCTURE
     1 31J         1 TEMP              0 ****  ****    0 ROOT
