@<TRIPOS>MOLECULE
31J
   45    46     1     0     0
SMALL
bcc


@<TRIPOS>ATOM
      1 C21         0.0060   -0.1270    0.1200 ca        1 31J      0.155100
      2 C23        -0.2780   -0.4320   -2.2290 c         1 31J      0.722800
      3 C01         4.5820    2.8830   -9.4270 c3        1 31J      0.118700
      4 O02         3.8570    3.0590   -8.2220 os        1 31J     -0.425600
      5 C03         3.5070    1.8170   -7.6150 c3        1 31J      0.125400
      6 C04         2.7080    2.1750   -6.3650 c3        1 31J      0.128400
      7 O05         2.5600    0.9580   -5.6380 os        1 31J     -0.430600
      8 C06         1.8130    1.1430   -4.4360 c3        1 31J      0.135400
      9 C07         1.6090   -0.2470   -3.8470 c3        1 31J     -0.038200
     10 C08         1.1460   -0.1740   -2.4360 cc        1 31J     -0.204400
     11 C09         1.9530    0.0910   -1.3720 cd        1 31J      0.050600
     12 C10         3.4040    0.3590   -1.5120 c3        1 31J     -0.077900
     13 C11         1.3820    0.1160   -0.0390 ca        1 31J     -0.148800
     14 C12         2.1570    0.3780    1.1080 ca        1 31J     -0.120000
     15 C13         1.5600    0.3880    2.3580 ca        1 31J      0.023100
     16 O14         2.2180    0.6610    3.5480 os        1 31J     -0.347900
     17 C15         3.6380    0.5820    3.5030 c3        1 31J      0.120700
     18 C16         0.1670    0.1410    2.5050 ca        1 31J      0.153100
     19 O17        -0.4470    0.1540    3.7310 oh        1 31J     -0.484100
     20 C18        -0.6280   -0.1200    1.3840 ca        1 31J     -0.099300
     21 C19        -2.0800   -0.3710    1.5070 c3        1 31J     -0.041800
     22 O22        -0.8220   -0.3960   -0.9480 os        1 31J     -0.317200
     23 O24        -1.1490   -0.6970   -3.0580 o         1 31J     -0.570500
     24 H1          5.5400    2.3390   -9.2360 h1        1 31J      0.034033
     25 H2          3.9700    2.3240  -10.1780 h1        1 31J      0.034033
     26 H3          4.7860    3.9240   -9.7830 h1        1 31J      0.034033
     27 H4          4.4340    1.2470   -7.3440 h1        1 31J      0.040200
     28 H5          2.8880    1.2030   -8.3200 h1        1 31J      0.040200
     29 H6          1.7020    2.5870   -6.6400 h1        1 31J      0.041200
     30 H7          3.2610    2.9290   -5.7450 h1        1 31J      0.041200
     31 H8          0.8280    1.6290   -4.6650 h1        1 31J      0.034200
     32 H9          2.3960    1.8000   -3.7360 h1        1 31J      0.034200
     33 H10         0.8530   -0.7970   -4.4710 hc        1 31J      0.076700
     34 H11         2.5700   -0.8250   -3.9130 hc        1 31J      0.076700
     35 H12         3.9890   -0.4000   -0.9340 hc        1 31J      0.060033
     36 H13         3.7370    0.3210   -2.5780 hc        1 31J      0.060033
     37 H14         3.6430    1.3760   -1.1090 hc        1 31J      0.060033
     38 H15         3.2340    0.5730    1.0040 ha        1 31J      0.146000
     39 H16         4.0520    1.4290    2.9030 h1        1 31J      0.047367
     40 H17         3.9710   -0.3970    3.0820 h1        1 31J      0.047367
     41 H18         3.9390    0.6780    4.5770 h1        1 31J      0.047367
     42 H19         0.2320    0.2940    4.4110 ho        1 31J      0.443000
     43 H20        -2.4070   -1.1420    0.7640 hc        1 31J      0.058700
     44 H21        -2.6460    0.5730    1.3010 hc        1 31J      0.058700
     45 H22        -2.3370   -0.7220    2.5370 hc        1 31J      0.058700
@<TRIPOS>BOND
     1    1   13 ar  
     2    1   20 ar  
     3    1   22 1   
     4    2   10 1   
     5    2   22 1   
     6    2   23 2   
     7    3    4 1   
     8    3   24 1   
     9    3   25 1   
    10    3   26 1   
    11    4    5 1   
    12    5    6 1   
    13    5   27 1   
    14    5   28 1   
    15    6    7 1   
    16    6   29 1   
    17    6   30 1   
    18    7    8 1   
    19    8    9 1   
    20    8   31 1   
    21    8   32 1   
    22    9   10 1   
    23    9   33 1   
    24    9   34 1   
    25   10   11 2   
    26   11   12 1   
    27   11   13 1   
    28   12   35 1   
    29   12   36 1   
    30   12   37 1   
    31   13   14 ar  
    32   14   15 ar  
    33   14   38 1   
    34   15   16 1   
    35   15   18 ar  
    36   16   17 1   
    37   17   39 1   
    38   17   40 1   
    39   17   41 1   
    40   18   19 1   
    41   18   20 ar  
    42   19   42 1   
    43   20   21 1   
    44   21   43 1   
    45   21   44 1   
    46   21   45 1   
@<TRIPOS>SUBSTRUCTURE
     1 31J         1 TEMP              0 ****  ****    0 ROOT
