@<TRIPOS>MOLECULE
31K
   40    46     1     0     0
SMALL
bcc


@<TRIPOS>ATOM
      1 C22         0.0000    0.0000    0.0000 c2        1 31K     -0.217000
      2 C19        -2.7310   -0.3130    2.3840 DU        1 31K     -0.330000
      3 C18        -2.0490    0.4710    3.5220 c3        1 31K     -0.452000
      4 C10         2.1370    0.0010   -1.2830 c2        1 31K      0.093000
      5 C13         2.0860    0.0000    1.2100 c2        1 31K      0.414000
      6 C03         4.2230    0.0130   -2.4760 c3        1 31K     -0.134000
      7 C04         3.5340    0.0140   -3.6790 c2        1 31K      0.137000
      8 O05         4.2190    0.0200   -4.8540 oh        1 31K     -0.204000
      9 C06         2.1420    0.0080   -3.6870 c2        1 31K     -0.139000
     10 O07         1.4670    0.0080   -4.8680 os        1 31K      0.100000
     11 C08         0.0400    0.0010   -4.8010 c3        1 31K     -0.592000
     12 C09         1.4440    0.0010   -2.4930 c2        1 31K     -0.243000
     13 C11         3.5310    0.0070   -1.2820 c2        1 31K     -0.252000
     14 C12         1.3930    0.0000    0.0000 c3        1 31K     -0.375000
     15 C14         1.3920   -0.0020    2.4000 c3        1 31K     -0.418000
     16 C15        -0.0010    0.0080    2.4050 c2        1 31K     -0.088000
     17 N16        -0.6640   -0.0010    3.6360 n3        1 31K      0.189000
     18 C17         0.0770    0.7770    4.6380 c3        1 31K     -0.229000
     19 O20        -2.0560    0.0100    1.1640 os        1 31K      0.027000
     20 C21        -0.6940    0.0060    1.1980 c2        1 31K     -0.139000
     21 H1          0.9930    0.0820   -0.4250 DU        1 31K      0.385000
     22 H2         -2.1380   -0.2310    1.4820 ha        1 31K      0.225000
     23 H3         -2.6530   -1.3770    2.5750 ha        1 31K      0.225000
     24 H4         -2.9140    0.2250    2.9180 DU        1 31K      0.223000
     25 H5         -2.0430    1.5250    3.2710 h1        1 31K      0.100000
     26 H6          1.1980    0.0510    1.8280 DU        1 31K      0.145000
     27 H7          5.1130    0.0140   -1.5830 DU        1 31K      0.226000
     28 H8          6.2850    0.0790   -1.5440 hc        1 31K      0.100000
     29 H9          5.7950    1.1000   -2.4680 hc        1 31K      0.100000
     30 H10         4.9820    0.0450   -4.3010 ho        1 31K      0.262000
     31 H11         1.0970   -0.2150   -4.9030 h1        1 31K      0.161333
     32 H12        -0.3050    0.9260   -4.3540 h1        1 31K      0.161333
     33 H13        -0.3680   -0.0920   -5.8000 h1        1 31K      0.161333
     34 H14         0.7130   -0.3530   -3.2100 ha        1 31K      0.270000
     35 H15         2.5190    0.0040   -1.6690 ha        1 31K      0.194000
     36 H16         2.1500    0.0010    1.6260 hc        1 31K     -0.036000
     37 H17         0.9180    0.4250    4.0520 h1        1 31K      0.103333
     38 H18        -0.3050    1.7770    4.8040 h1        1 31K      0.103333
     39 H19         0.3770    0.2130    5.5130 h1        1 31K      0.103333
     40 C01         5.7300    0.0190   -2.4730 c3        1 31K     -0.359000
@<TRIPOS>BOND
     1    1   14 1   
     2    1   20 1   
     3    1   21 1   
     4    2    3 1   
     5    2   19 1   
     6    2   22 1   
     7    2   23 1   
     8    2   24 1   
     9    3   17 1   
    10    3   24 1   
    11    3   25 1   
    12    4   12 1   
    13    4   13 1   
    14    4   14 1   
    15    5   14 1   
    16    5   15 1   
    17    5   26 1   
    18    6    7 1   
    19    6   13 1   
    20    6   27 1   
    21    6   40 1   
    22    7    8 1   
    23    7    9 1   
    24    8   30 1   
    25    9   10 1   
    26    9   12 1   
    27   10   11 1   
    28   11   31 1   
    29   11   32 1   
    30   11   33 1   
    31   12   34 1   
    32   13   35 1   
    33   14   21 1   
    34   15   16 1   
    35   15   26 1   
    36   15   36 1   
    37   16   17 1   
    38   16   20 1   
    39   17   18 1   
    40   18   37 1   
    41   18   38 1   
    42   18   39 1   
    43   19   20 1   
    44   27   40 1   
    45   28   40 1   
    46   29   40 1   
@<TRIPOS>SUBSTRUCTURE
     1 31K         1 TEMP              0 ****  ****    0 ROOT
