@<TRIPOS>MOLECULE
31K
   40    42     1     0     0
SMALL
bcc


@<TRIPOS>ATOM
      1 C22         0.1170   -0.3480    0.0920 ca        1 31K     -0.116000
      2 C19        -2.4110   -1.0340    2.5700 c3        1 31K      0.123400
      3 C18        -2.0680    0.0330    3.6100 c3        1 31K      0.149800
      4 C10         2.1500    0.0590   -1.2730 cp        1 31K     -0.032000
      5 C13         2.0390    0.6720    1.1340 ca        1 31K     -0.118000
      6 C03         4.2130   -0.3670   -2.5010 ca        1 31K     -0.079300
      7 C04         3.5440   -0.0750   -3.7030 ca        1 31K      0.108100
      8 O05         4.2700   -0.1520   -4.8690 oh        1 31K     -0.495100
      9 C06         2.1770    0.2820   -3.6790 ca        1 31K      0.045100
     10 O07         1.6300    0.5550   -4.9240 os        1 31K     -0.350900
     11 C08         0.2370    0.8380   -4.9440 c3        1 31K      0.121700
     12 C09         1.4820    0.3480   -2.4730 ca        1 31K     -0.157000
     13 C11         3.5030   -0.2940   -1.2990 ca        1 31K     -0.119000
     14 C12         1.4290    0.1290   -0.0030 cp        1 31K     -0.041000
     15 C14         1.3650    0.7480    2.3470 ca        1 31K     -0.148000
     16 C15         0.0430    0.2730    2.4740 ca        1 31K      0.085600
     17 N16        -0.6320    0.2400    3.7170 nh        1 31K     -0.628000
     18 C17        -0.2490    1.2320    4.6910 c3        1 31K      0.176100
     19 O20        -1.8820   -0.7070    1.2850 os        1 31K     -0.327900
     20 C21        -0.5650   -0.2690    1.3080 ca        1 31K      0.072100
     21 H1         -0.3910   -0.7870   -0.7800 ha        1 31K      0.150000
     22 H2         -3.5190   -1.0790    2.4050 h1        1 31K      0.064700
     23 H3         -2.0220   -2.0400    2.8780 h1        1 31K      0.064700
     24 H4         -2.4410   -0.3080    4.6160 h1        1 31K      0.049200
     25 H5         -2.6040    0.9890    3.3410 h1        1 31K      0.049200
     26 H6          3.0690    1.0560    1.0670 ha        1 31K      0.137000
     27 H7          5.9690   -1.1660   -1.5450 hc        1 31K      0.048033
     28 H8          5.8360   -1.4890   -3.3310 hc        1 31K      0.048033
     29 H9          6.2680    0.1670   -2.7440 hc        1 31K      0.048033
     30 H10         3.6720    0.0410   -5.6070 ho        1 31K      0.435000
     31 H11        -0.3470   -0.0210   -4.5320 h1        1 31K      0.045700
     32 H12         0.0160    0.9820   -6.0320 h1        1 31K      0.045700
     33 H13         0.0180    1.7720   -4.3710 h1        1 31K      0.045700
     34 H14         0.4200    0.6320   -2.4480 ha        1 31K      0.144000
     35 H15         4.0210   -0.5300   -0.3560 ha        1 31K      0.140000
     36 H16         1.8820    1.1860    3.2150 ha        1 31K      0.136000
     37 H17        -0.9420    1.1750    5.5710 h1        1 31K      0.040033
     38 H18        -0.2710    2.2790    4.2820 h1        1 31K      0.040033
     39 H19         0.7920    1.0040    5.0440 h1        1 31K      0.040033
     40 C01         5.6450   -0.7370   -2.5240 c3        1 31K     -0.043800
@<TRIPOS>BOND
     1    1   14 ar  
     2    1   20 ar  
     3    1   21 1   
     4    2    3 1   
     5    2   19 1   
     6    2   22 1   
     7    2   23 1   
     8    3   17 1   
     9    3   24 1   
    10    3   25 1   
    11    4   12 ar  
    12    4   13 ar  
    13    4   14 1   
    14    5   14 ar  
    15    5   15 ar  
    16    5   26 1   
    17    6    7 ar  
    18    6   13 ar  
    19    6   40 1   
    20    7    8 1   
    21    7    9 ar  
    22    8   30 1   
    23    9   10 1   
    24    9   12 ar  
    25   10   11 1   
    26   11   31 1   
    27   11   32 1   
    28   11   33 1   
    29   12   34 1   
    30   13   35 1   
    31   15   16 ar  
    32   15   36 1   
    33   16   17 1   
    34   16   20 ar  
    35   17   18 1   
    36   18   37 1   
    37   18   38 1   
    38   18   39 1   
    39   19   20 1   
    40   27   40 1   
    41   28   40 1   
    42   29   40 1   
@<TRIPOS>SUBSTRUCTURE
     1 31K         1 TEMP              0 ****  ****    0 ROOT
