@<TRIPOS>MOLECULE
31L
   43    45     1     0     0
SMALL
bcc


@<TRIPOS>ATOM
      1 C10        -0.0360   -0.1090    0.0510 cp        1 31L     -0.032000
      2 C11         1.3360   -0.3850    0.0610 ca        1 31L     -0.119000
      3 C12        -0.7900   -0.1570   -1.1990 cp        1 31L     -0.061000
      4 C14        -0.9550    0.3190   -3.5750 ca        1 31L     -0.168500
      5 C15        -2.2510   -0.2480   -3.6290 ca        1 31L      0.136600
      6 C16        -2.7900   -0.7720   -2.4330 ca        1 31L     -0.168500
      7 C20        -3.0950   -0.5190   -7.2990 c3        1 31L      0.123900
      8 C22        -5.1170   -0.3620   -6.0930 c3        1 31L      0.123900
      9 C23        -4.3810   -0.6000   -4.7680 c3        1 31L      0.148800
     10 C03         2.0780   -0.3470    1.2440 ca        1 31L     -0.079300
     11 C04         1.4240   -0.0180    2.4450 ca        1 31L      0.108100
     12 O05         2.1780    0.0090    3.5940 oh        1 31L     -0.494100
     13 C06         0.0380    0.2610    2.4380 ca        1 31L      0.043100
     14 O07        -0.5020    0.5470    3.6830 os        1 31L     -0.350900
     15 C08        -1.7950    1.1410    3.6730 c3        1 31L      0.121700
     16 C09        -0.6890    0.2150    1.2500 ca        1 31L     -0.155000
     17 C13        -0.2450    0.3580   -2.3830 ca        1 31L     -0.096500
     18 C17        -2.0710   -0.7170   -1.2440 ca        1 31L     -0.096500
     19 N18        -2.9850   -0.1970   -4.8410 nh        1 31L     -0.631000
     20 C19        -2.3070   -0.7560   -6.0040 c3        1 31L      0.148800
     21 O21        -4.4400   -0.9690   -7.1870 os        1 31L     -0.413600
     22 H1          1.8430   -0.6450   -0.8810 ha        1 31L      0.139000
     23 H2         -0.4990    0.7540   -4.4780 ha        1 31L      0.135000
     24 H3         -3.7880   -1.2350   -2.4190 ha        1 31L      0.135000
     25 H4         -2.6610   -1.1360   -8.1290 h1        1 31L      0.056200
     26 H5         -3.0840    0.5670   -7.5780 h1        1 31L      0.056200
     27 H6         -5.2390    0.7360   -6.2890 h1        1 31L      0.056200
     28 H7         -6.1190   -0.8650   -6.0700 h1        1 31L      0.056200
     29 H8         -4.4830   -1.6920   -4.4980 h1        1 31L      0.047450
     30 H9         -4.8820    0.0120   -3.9680 h1        1 31L      0.047450
     31 H10         4.0760    0.0980    1.8730 hc        1 31L      0.048700
     32 H11         3.9460   -0.6470    0.2170 hc        1 31L      0.048700
     33 H12         3.6980   -1.6630    1.7040 hc        1 31L      0.048700
     34 H13         1.6060    0.3000    4.3210 ho        1 31L      0.436000
     35 H14        -1.8160    2.0440    3.0160 h1        1 31L      0.045367
     36 H15        -1.9620    1.4230    4.7440 h1        1 31L      0.045367
     37 H16        -2.5590    0.3970    3.3390 h1        1 31L      0.045367
     38 H17        -1.7650    0.4370    1.2420 ha        1 31L      0.141000
     39 H18         0.7590    0.8110   -2.3660 ha        1 31L      0.134500
     40 H19        -2.5150   -1.1360   -0.3270 ha        1 31L      0.134500
     41 H20        -1.3000   -0.2650   -6.1090 h1        1 31L      0.047450
     42 H21        -2.1450   -1.8660   -5.8830 h1        1 31L      0.047450
     43 C01         3.5260   -0.6530    1.2520 c3        1 31L     -0.043800
@<TRIPOS>BOND
     1    1    2 ar  
     2    1    3 1   
     3    1   16 ar  
     4    2   10 ar  
     5    2   22 1   
     6    3   17 ar  
     7    3   18 ar  
     8    4    5 ar  
     9    4   17 ar  
    10    4   23 1   
    11    5    6 ar  
    12    5   19 1   
    13    6   18 ar  
    14    6   24 1   
    15    7   20 1   
    16    7   21 1   
    17    7   25 1   
    18    7   26 1   
    19    8    9 1   
    20    8   21 1   
    21    8   27 1   
    22    8   28 1   
    23    9   19 1   
    24    9   29 1   
    25    9   30 1   
    26   10   11 ar  
    27   10   43 1   
    28   11   12 1   
    29   11   13 ar  
    30   12   34 1   
    31   13   14 1   
    32   13   16 ar  
    33   14   15 1   
    34   15   35 1   
    35   15   36 1   
    36   15   37 1   
    37   16   38 1   
    38   17   39 1   
    39   18   40 1   
    40   19   20 1   
    41   20   41 1   
    42   20   42 1   
    43   31   43 1   
    44   32   43 1   
    45   33   43 1   
@<TRIPOS>SUBSTRUCTURE
     1 31L         1 TEMP              0 ****  ****    0 ROOT
