@<TRIPOS>MOLECULE
31N
   66    65     1     0     0
SMALL
bcc


@<TRIPOS>ATOM
      1 C2          3.0410   -1.1280   -1.7590 c2        1 31N      0.000000
      2 C3          1.7160   -0.7880   -1.2420 c2        1 31N      0.025000
      3 C7          2.8480    0.8740    0.1190 c2        1 31N      0.073000
      4 C10         8.0260    2.4450    2.5850 c1        1 31N      0.019000
      5 C11         8.6190    1.8640    1.3210 c3        1 31N     -0.087000
      6 C12         9.1940    2.9700    0.4370 c3        1 31N     -0.168000
      7 C13        10.5830    3.3550    0.8990 c3        1 31N     -0.162000
      8 C15         6.3440    1.8560    0.5540 c1        1 31N     -0.068000
      9 C18        10.9080    0.9230    1.3910 c2        1 31N     -0.113000
     10 N19         6.6840   -1.5280   -2.2740 n2        1 31N     -0.304000
     11 C20         7.8190   -1.3610   -1.7120 c2        1 31N      0.038000
     12 C21         9.1270   -1.9690   -2.0680 c2        1 31N     -0.078000
     13 C           2.0160   -3.0630   -2.4610 c2        1 31N     -0.114000
     14 F           2.8360    1.8630    1.0380 f         1 31N     -0.060000
     15 N           0.5240   -1.4270   -1.6770 n2        1 31N     -0.239000
     16 C1          2.8560   -2.0600   -2.8840 c2        1 31N     -0.169000
     17 C4          0.6200   -2.5380   -2.4060 c2        1 31N      0.221000
     18 N5          4.1640   -0.5080   -1.3330 na        1 31N     -0.036000
     19 C6          4.1010    0.4790   -0.4090 c2        1 31N     -0.142000
     20 C8          1.6400    0.2570   -0.2880 c2        1 31N      0.006000
     21 C14        11.5310    2.1720    0.8930 c3        1 31N     -0.155000
     22 O16         7.4650    1.2500    0.6100 os        1 31N     -0.072000
     23 C17         9.5910    0.7600    1.5600 c2        1 31N     -0.221000
     24 N22         9.1860   -2.8080   -3.1400 n2        1 31N     -0.117000
     25 C23        10.3670   -3.3530   -3.4490 c2        1 31N     -0.028000
     26 C24        11.5400   -3.0840   -2.7010 c2        1 31N     -0.090000
     27 C25        11.4860   -2.2300   -1.6030 c2        1 31N     -0.126000
     28 C26        10.2520   -1.6570   -1.2790 c2        1 31N     -0.129000
     29 O27         8.7340    2.6860    3.6220 oh        1 31N     -0.103000
     30 N28        14.2030   -4.4950   -5.7390 n2        1 31N     -0.386000
     31 C29        14.7740   -5.1390   -6.6200 c1        1 31N      0.313000
     32 C30        13.8990   -3.3490   -2.9340 c1        1 31N     -0.007000
     33 O31        12.7090   -3.7700   -3.1120 os        1 31N     -0.011000
     34 O32        15.1570   -5.6390   -7.6440 o         1 31N     -0.216000
     35 C33        -1.7350   -2.7600   -2.7400 c3        1 31N     -0.078000
     36 H1         -0.1570   -0.1690    0.7940 hc        1 31N      0.121333
     37 H2         -0.3390    1.0260   -0.5550 hc        1 31N      0.121333
     38 H3          0.4670    1.5280    0.9970 hc        1 31N      0.121333
     39 H4          9.2330    2.6000   -0.6220 hc        1 31N      0.109500
     40 H5          8.5160    3.8630    0.4630 hc        1 31N      0.109500
     41 H6         10.5260    3.7890    1.9330 hc        1 31N      0.099500
     42 H7         10.9850    4.1590    0.2270 hc        1 31N      0.099500
     43 H8          6.1990    2.8640    0.9880 ha        1 31N      0.110000
     44 H9         11.8970    1.9860   -0.1550 hc        1 31N      0.113000
     45 H10         4.8870    1.1020    2.3190 ha        1 31N      0.005000
     46 H11         5.4100    1.3010    2.7050 ha        1 31N      0.005000
     47 H12        11.6080    0.0980    1.6100 ha        1 31N      0.142000
     48 H13         2.2650   -3.7720   -1.6530 ha        1 31N      0.175000
     49 H14         2.8380   -1.6150   -3.8900 ha        1 31N      0.180000
     50 H15         5.0850   -0.8030   -1.7030 hn        1 31N      0.337000
     51 H16         5.1050    1.0060   -0.0580 h4        1 31N      0.311000
     52 H17         9.1530   -0.1930    1.8950 ha        1 31N      0.150000
     53 H18        10.1630   -0.9750   -0.4190 ha        1 31N      0.153000
     54 H19        12.3820   -2.0130   -1.0020 ha        1 31N      0.153000
     55 H20         9.6930    2.4580    3.5660 ho        1 31N      0.191000
     56 H21        10.3970   -4.0330   -4.3220 h4        1 31N      0.200000
     57 H22        14.1180   -2.3920   -2.4200 ha        1 31N      0.052000
     58 H23        14.3870   -4.5100   -4.7640 hn        1 31N      0.279000
     59 H24        -1.8490   -1.7400   -3.1770 h1        1 31N      0.112333
     60 H25        -1.9780   -2.7610   -1.6510 h1        1 31N      0.112333
     61 H26        -2.3470   -3.5150   -3.2980 h1        1 31N      0.112333
     62 H27        12.4360    2.4170    1.5140 hc        1 31N      0.113000
     63 H28         7.8630   -0.6750   -0.8350 h4        1 31N      0.159000
     64 C9          0.3410    0.6880    0.2700 c3        1 31N     -0.199000
     65 O          -0.3920   -3.2380   -2.9450 os        1 31N     -0.151000
     66 H192        6.6310   -2.1360   -3.0640 hn        1 31N      0.186000
@<TRIPOS>BOND
     1    1    2 1   
     2    1   16 1   
     3    1   18 1   
     4    2   15 1   
     5    2   20 1   
     6    3   14 1   
     7    3   19 1   
     8    3   20 1   
     9    4    5 1   
    10    4   29 1   
    11    5    6 1   
    12    5   22 1   
    13    5   23 1   
    14    6    7 1   
    15    6   39 1   
    16    6   40 1   
    17    7   21 1   
    18    7   41 1   
    19    7   42 1   
    20    8   22 1   
    21    8   43 1   
    22    9   21 1   
    23    9   23 1   
    24    9   47 1   
    25   10   11 1   
    26   10   66 1   
    27   11   12 1   
    28   11   63 1   
    29   12   24 1   
    30   12   28 1   
    31   13   16 1   
    32   13   17 1   
    33   13   48 1   
    34   15   17 1   
    35   16   49 1   
    36   17   65 1   
    37   18   19 1   
    38   18   50 1   
    39   19   51 1   
    40   20   64 1   
    41   21   44 1   
    42   21   62 1   
    43   23   52 1   
    44   24   25 1   
    45   25   26 1   
    46   25   56 1   
    47   26   27 1   
    48   26   33 1   
    49   27   28 1   
    50   27   54 1   
    51   28   53 1   
    52   29   55 1   
    53   30   31 1   
    54   30   58 1   
    55   31   34 1   
    56   32   33 1   
    57   32   57 1   
    58   35   59 1   
    59   35   60 1   
    60   35   61 1   
    61   35   65 1   
    62   36   64 1   
    63   37   64 1   
    64   38   64 1   
    65   45   46 1   
@<TRIPOS>SUBSTRUCTURE
     1 31N         1 TEMP              0 ****  ****    0 ROOT
