@<TRIPOS>MOLECULE
31N
   66    65     1     0     0
SMALL
bcc


@<TRIPOS>ATOM
      1 C2         -0.3910   -1.2530   -0.3530 c2        1 31N     -0.012000
      2 C3          0.9570   -0.8550   -0.3300 c2        1 31N      0.005000
      3 C7          1.3920   -2.4590   -2.1180 c2        1 31N      0.046000
      4 C10         4.2050   -1.2230   -0.3790 c2        1 31N      0.019000
      5 C11         5.6380   -0.8260   -0.5930 c3        1 31N     -0.035000
      6 C12         6.4690   -0.8800    0.6870 c3        1 31N     -0.159000
      7 C13         7.9760   -0.8920    0.4840 c3        1 31N     -0.167000
      8 C15         4.8400    1.4800   -0.9580 c1        1 31N     -0.023000
      9 C18         7.6720   -1.4610   -1.9110 c1        1 31N     -0.019000
     10 N19         9.8430   -0.6080   -1.1810 n4        1 31N     -0.011000
     11 C20        10.2160   -0.1870   -2.5630 c3        1 31N     -0.074000
     12 C21        11.6940   -0.3010   -2.8440 c2        1 31N     -0.099000
     13 C          -2.3090   -1.2140    1.2490 c1        1 31N      0.278000
     14 F           2.2070   -3.0640   -3.0060 f         1 31N     -0.076000
     15 N           1.4520    0.1950    0.4580 n2        1 31N     -0.272000
     16 C1         -1.3950   -0.6290    0.4990 c2        1 31N     -0.498000
     17 C4          1.0080    0.4230    1.6570 c2        1 31N      0.102000
     18 N5         -0.8050   -2.2450   -1.2430 n3        1 31N     -0.093000
     19 C6         -0.0060   -2.8640   -2.1090 c1        1 31N     -0.095000
     20 C8          1.8770   -1.4840   -1.2520 c2        1 31N     -0.066000
     21 C14         8.3510   -0.5490   -0.9640 c3        1 31N     -0.150000
     22 O16         5.7210    0.5880   -1.0890 os        1 31N     -0.102000
     23 C17         6.2580   -1.6640   -1.7130 c3        1 31N     -0.222000
     24 N22        12.5720   -0.1980   -1.8110 n2        1 31N     -0.164000
     25 C23        13.8790   -0.2670   -2.0930 c2        1 31N     -0.061000
     26 C24        14.3590   -0.4350   -3.4120 c2        1 31N     -0.088000
     27 C25        13.4590   -0.5470   -4.4730 c2        1 31N     -0.062000
     28 C26        12.0920   -0.4790   -4.1820 c2        1 31N     -0.128000
     29 O27         3.9840   -1.7520    0.8700 oh        1 31N     -0.254000
     30 N28        16.8390   -1.9990   -1.1950 n2        1 31N     -0.406000
     31 C29        16.7760   -2.8830   -0.3350 c1        1 31N      0.328000
     32 C30        16.6710    0.0500   -3.0990 c1        1 31N      0.013000
     33 O31        15.7410   -0.5850   -3.6920 os        1 31N     -0.010000
     34 O32        16.4770   -3.6150    0.5680 o         1 31N     -0.197000
     35 C33         2.3150    2.4400    1.8430 c3        1 31N     -0.075000
     36 H1          3.5580   -0.6510   -2.3170 ha        1 31N      0.155000
     37 H2          5.5610    2.1510    1.2650 ha        1 31N      0.004750
     38 H3          5.6130    2.7430    0.9370 ha        1 31N      0.004750
     39 H4          6.1840    0.0050    1.3180 hc        1 31N      0.130000
     40 H5          6.1830   -1.8000    1.2670 hc        1 31N      0.130000
     41 H6          8.3780   -1.9080    0.7470 hc        1 31N      0.110000
     42 H7          8.4480   -0.1530    1.1850 hc        1 31N      0.110000
     43 H8          3.8520    1.3230   -0.4840 ha        1 31N      0.101000
     44 H9          8.0250    0.5220   -1.1850 hx        1 31N      0.194000
     45 H10         7.2870   -0.0910   -3.9740 ha        1 31N      0.004750
     46 H11         7.6500    0.3020   -3.5560 ha        1 31N      0.004750
     47 H12         9.6360   -0.8400   -3.2850 hx        1 31N      0.161000
     48 H13         0.2760   -0.1600    2.2630 h5        1 31N      0.175000
     49 H14        -1.3970    0.4880    0.4780 ha        1 31N      0.219000
     50 H15        -1.7770   -2.4940   -1.2460 hn        1 31N      0.275000
     51 H16         6.1090   -2.7680   -1.5000 hc        1 31N      0.190000
     52 H17         5.7220   -1.4730   -2.6900 hc        1 31N      0.190000
     53 H18        13.8180   -0.6920   -5.5040 ha        1 31N      0.181000
     54 H19        11.3470   -0.5650   -4.9860 ha        1 31N      0.163000
     55 H20         3.0520   -2.0160    0.9300 ho        1 31N      0.240000
     56 H21        14.5750   -0.2000   -1.2340 h4        1 31N      0.194000
     57 H22        16.4720    0.8000   -2.3080 ha        1 31N      0.058000
     58 H23        17.5530   -1.8880   -1.8730 hn        1 31N      0.275000
     59 H24         1.8770    2.8780    0.9140 h1        1 31N      0.094000
     60 H25         3.3060    1.9710    1.6250 h1        1 31N      0.094000
     61 H26         2.4070    3.2120    2.6480 h1        1 31N      0.094000
     62 H27        10.3070   -0.0040   -0.4920 hn        1 31N      0.252000
     63 H28         9.8930    0.8860   -2.7010 hx        1 31N      0.161000
     64 C9          3.2700   -1.0760   -1.3390 c2        1 31N     -0.188000
     65 O           1.4290    1.4780    2.4160 os        1 31N     -0.203000
     66 H192       10.1650   -1.5720   -1.0340 hn        1 31N      0.252000
@<TRIPOS>BOND
     1    1    2 1   
     2    1   16 1   
     3    1   18 1   
     4    2   15 1   
     5    2   20 1   
     6    3   14 1   
     7    3   19 1   
     8    3   20 1   
     9    4    5 1   
    10    4   29 1   
    11    4   64 1   
    12    5    6 1   
    13    5   22 1   
    14    5   23 1   
    15    6    7 1   
    16    6   39 1   
    17    6   40 1   
    18    7   21 1   
    19    7   41 1   
    20    7   42 1   
    21    8   22 1   
    22    8   43 1   
    23    9   21 1   
    24    9   23 1   
    25   10   11 1   
    26   10   21 1   
    27   10   62 1   
    28   10   66 1   
    29   11   12 1   
    30   11   47 1   
    31   11   63 1   
    32   12   24 1   
    33   12   28 1   
    34   13   16 1   
    35   15   17 1   
    36   16   49 1   
    37   17   48 1   
    38   17   65 1   
    39   18   19 1   
    40   18   50 1   
    41   20   64 1   
    42   21   44 1   
    43   23   51 1   
    44   23   52 1   
    45   24   25 1   
    46   25   26 1   
    47   25   56 1   
    48   26   27 1   
    49   26   33 1   
    50   27   28 1   
    51   27   53 1   
    52   28   54 1   
    53   29   55 1   
    54   30   31 1   
    55   30   58 1   
    56   31   34 1   
    57   32   33 1   
    58   32   57 1   
    59   35   59 1   
    60   35   60 1   
    61   35   61 1   
    62   35   65 1   
    63   36   64 1   
    64   37   38 1   
    65   45   46 1   
@<TRIPOS>SUBSTRUCTURE
     1 31N         1 TEMP              0 ****  ****    0 ROOT
