@<TRIPOS>MOLECULE
31N
   66    65     1     0     0
SMALL
bcc


@<TRIPOS>ATOM
      1 C2         -0.5900   -0.6470   -0.0960 c2        1 31N     -0.069000
      2 C3          0.9330   -0.7750   -0.0680 c2        1 31N      0.090000
      3 C7          0.7830   -1.2830   -2.4460 c2        1 31N      0.093000
      4 C10         4.0130   -1.3220   -0.9810 c2        1 31N      0.042000
      5 C11         5.4550   -0.9220   -1.1570 c3        1 31N     -0.029000
      6 C12         6.2820   -1.2170    0.0930 c3        1 31N     -0.175000
      7 C13         7.7870   -1.0790   -0.0770 c3        1 31N     -0.166000
      8 C15         4.9670    1.4490   -0.7930 c1        1 31N     -0.005000
      9 C18         7.4710   -1.4770   -2.5240 c1        1 31N     -0.020000
     10 N19         9.6460   -0.7470   -1.7570 n4        1 31N     -0.043000
     11 C20        11.5600   -0.5770   -4.8920 c2        1 31N     -0.153000
     12 C21        12.5590   -0.7290   -3.9990 c2        1 31N     -0.037000
     13 C          -0.4050    0.1420    2.1930 c2        1 31N     -0.070000
     14 F           1.2940   -1.4440   -3.6790 f         1 31N     -0.060000
     15 N           1.5570   -0.8960    1.0660 n2        1 31N     -0.215000
     16 C1         -1.0240   -0.1130    1.0490 c1        1 31N     -0.135000
     17 C4          0.8440   -0.7120    2.3340 c3        1 31N     -0.043000
     18 N5         -1.2760   -1.1810   -1.1960 n3        1 31N     -0.110000
     19 C6         -0.6930   -1.4960   -2.3350 c1        1 31N     -0.027000
     20 C8          1.5760   -0.9410   -1.3790 c2        1 31N     -0.126000
     21 C14         8.1660   -0.6620   -1.5040 c3        1 31N     -0.155000
     22 O16         5.5630    0.5360   -1.4370 os        1 31N     -0.104000
     23 C17         6.0430   -1.6040   -2.3940 c3        1 31N     -0.218000
     24 N22        12.4050   -0.4270   -2.6140 n2        1 31N     -0.338000
     25 C23        13.4860   -0.2620   -1.8500 c2        1 31N      0.223000
     26 C24        14.8360   -0.1710   -2.5270 c2        1 31N     -0.093000
     27 C25        14.8540   -0.8430   -3.6740 c1        1 31N     -0.168000
     28 C26        13.8600   -1.3490   -4.3970 c2        1 31N     -0.036000
     29 O27         3.9080   -2.4780   -0.2480 oh        1 31N     -0.257000
     30 N28        13.3670   -0.0760   -0.4830 n         1 31N     -0.339000
     31 C29        14.4410    0.0050    0.4240 c2        1 31N      0.280000
     32 C30        16.7840    1.1880   -2.6400 c1        1 31N      0.035000
     33 O31        15.7650    0.7500   -2.0110 os        1 31N     -0.021000
     34 O32        14.1680    0.1650    1.6150 o         1 31N     -0.289000
     35 C33         2.8700   -0.3070    3.6030 c1        1 31N     -0.013000
     36 H1          3.1960    0.2430   -2.1610 ha        1 31N      0.160000
     37 H2          6.8090    1.6020    0.7730 ha        1 31N      0.004500
     38 H3          6.3990    2.0050    1.1350 ha        1 31N      0.004500
     39 H4          5.9380   -0.5220    0.9090 hc        1 31N      0.131500
     40 H5          6.0480   -2.2640    0.4340 hc        1 31N      0.131500
     41 H6          8.1730   -0.3100    0.6440 hc        1 31N      0.112000
     42 H7          8.2750   -2.0570    0.1810 hc        1 31N      0.112000
     43 H8          4.2590    1.2450    0.0350 ha        1 31N      0.079000
     44 H9          7.8700    0.4310   -1.6530 hx        1 31N      0.195000
     45 H10         7.9990   -0.2280   -4.6270 ha        1 31N      0.004500
     46 H11         8.2460    0.2000   -4.1620 ha        1 31N      0.004500
     47 H12         9.8130   -0.6750   -2.7720 hn        1 31N      0.256000
     48 H13         0.6710   -1.7260    2.7940 h2        1 31N      0.143000
     49 H14        -0.6010    0.9430    2.9140 ha        1 31N      0.196000
     50 H15        -2.2700   -1.2840   -1.1090 hn        1 31N      0.284000
     51 H16         5.7880   -2.7080   -2.3800 hc        1 31N      0.196500
     52 H17         5.5630   -1.1940   -3.3350 hc        1 31N      0.196500
     53 H18        13.8910   -2.1740   -5.1150 ha        1 31N      0.185000
     54 H19        11.7160   -0.8300   -5.9510 ha        1 31N      0.132000
     55 H20         2.9680   -2.7030   -0.1530 ho        1 31N      0.249000
     56 H21        12.4520    0.0400   -0.0990 hn        1 31N      0.222000
     57 H22        17.0400    0.8790   -3.6710 ha        1 31N      0.078000
     58 H23        15.4620   -0.0900   -0.0060 h5        1 31N      0.193000
     59 H24         4.4030    1.2460    2.6840 ha        1 31N      0.004500
     60 H25         4.6300    0.8350    2.1920 ha        1 31N      0.004500
     61 H26         3.3730   -1.2090    3.2090 ha        1 31N      0.067000
     62 H27        10.1420    0.0050   -1.2750 hn        1 31N      0.256000
     63 H28        10.5590   -0.2030   -4.6430 ha        1 31N      0.132000
     64 C9          2.9870   -0.6350   -1.5210 c2        1 31N     -0.211000
     65 O           1.7060    0.0530    3.2880 os        1 31N     -0.029000
     66 H192       10.0140   -1.6480   -1.4410 hn        1 31N      0.256000
@<TRIPOS>BOND
     1    1    2 1   
     2    1   16 1   
     3    1   18 1   
     4    2   15 1   
     5    2   20 1   
     6    3   14 1   
     7    3   19 1   
     8    3   20 1   
     9    4    5 1   
    10    4   29 1   
    11    4   64 1   
    12    5    6 1   
    13    5   22 1   
    14    5   23 1   
    15    6    7 1   
    16    6   39 1   
    17    6   40 1   
    18    7   21 1   
    19    7   41 1   
    20    7   42 1   
    21    8   22 1   
    22    8   43 1   
    23    9   21 1   
    24    9   23 1   
    25   10   21 1   
    26   10   47 1   
    27   10   62 1   
    28   10   66 1   
    29   11   12 1   
    30   11   54 1   
    31   11   63 1   
    32   12   24 1   
    33   12   28 1   
    34   13   16 1   
    35   13   17 1   
    36   13   49 1   
    37   15   17 1   
    38   17   48 1   
    39   17   65 1   
    40   18   19 1   
    41   18   50 1   
    42   20   64 1   
    43   21   44 1   
    44   23   51 1   
    45   23   52 1   
    46   24   25 1   
    47   25   26 1   
    48   25   30 1   
    49   26   27 1   
    50   26   33 1   
    51   27   28 1   
    52   28   53 1   
    53   29   55 1   
    54   30   31 1   
    55   30   56 1   
    56   31   34 1   
    57   31   58 1   
    58   32   33 1   
    59   32   57 1   
    60   35   61 1   
    61   35   65 1   
    62   36   64 1   
    63   37   38 1   
    64   45   46 1   
    65   59   60 1   
@<TRIPOS>SUBSTRUCTURE
     1 31N         1 TEMP              0 ****  ****    0 ROOT
