@<TRIPOS>MOLECULE
31O
   51    54     1     0     0
SMALL
bcc


@<TRIPOS>ATOM
      1 CAW        -0.0170   -0.1750    0.2390 c3        1 31O      0.124700
      2 OAU         1.3950    0.0390    0.2800 os        1 31O     -0.441900
      3 CAT         2.0340   -0.3010    1.4420 c         1 31O      0.633100
      4 OAV         1.3630   -0.7660    2.3640 o         1 31O     -0.525000
      5 CAS         3.5190   -0.0520    1.3820 c3        1 31O     -0.114700
      6 CBD         4.2440   -1.3570    1.6400 c3        1 31O     -0.094100
      7 CAI         3.8940    1.0100    2.4450 c3        1 31O      0.111200
      8 NAH         3.1620    2.2510    2.3570 n2        1 31O     -0.573900
      9 CAJ         5.3830    1.2330    2.4440 cc        1 31O      0.346800
     10 NAN         6.2850    0.8520    3.3950 nd        1 31O     -0.325000
     11 NAO         7.4750    1.3200    3.0820 nd        1 31O     -0.346000
     12 CAP         7.4050    2.0330    1.9140 cc        1 31O      0.378800
     13 CAR         8.5190    2.7420    1.2470 c3        1 31O     -0.124400
     14 NAK         6.0610    2.0000    1.4700 na        1 31O     -0.257800
     15 CAE         5.5190    2.5070    0.2750 ca        1 31O     -0.014200
     16 CAF         6.2740    2.4520   -0.9160 ca        1 31O     -0.108000
     17 CAA         5.7620    2.9330   -2.1140 ca        1 31O     -0.179000
     18 CAB         4.4710    3.4720   -2.1440 ca        1 31O      0.126100
     19 OAL         3.8540    3.9750   -3.2700 os        1 31O     -0.316900
     20 CAM         4.5970    3.8960   -4.4820 c3        1 31O      0.110700
     21 CAC         3.7010    3.5340   -0.9700 ca        1 31O     -0.113000
     22 CAD         4.2130    3.0600    0.2380 ca        1 31O     -0.152900
     23 CAG         3.3350    3.1380    1.4350 ce        1 31O      0.543500
     24 CAQ         2.5580    4.4040    1.5270 ca        1 31O     -0.144900
     25 CAX         1.1790    4.3750    1.7640 ca        1 31O     -0.088000
     26 CAY         0.4610    5.5660    1.8630 ca        1 31O     -0.131000
     27 CAZ         1.1280    6.7880    1.7350 ca        1 31O      0.029400
     28 CL1         0.2570    8.2420    1.8550 cl        1 31O     -0.088400
     29 CBA         2.5090    6.8240    1.5110 ca        1 31O     -0.131000
     30 CBB         3.2200    5.6320    1.4070 ca        1 31O     -0.088000
     31 H1         -0.2420   -1.2580    0.3890 h1        1 31O      0.051367
     32 H2         -0.3060    0.1660   -0.7850 h1        1 31O      0.051367
     33 H3         -0.5170    0.4320    1.0310 h1        1 31O      0.051367
     34 H4          3.7840    0.3360    0.3580 hc        1 31O      0.085700
     35 H5          3.9740   -1.7620    2.6450 hc        1 31O      0.057033
     36 H6          5.3490   -1.1980    1.6010 hc        1 31O      0.057033
     37 H7          3.9630   -2.1080    0.8630 hc        1 31O      0.057033
     38 H8          3.6060    0.5840    3.4610 h1        1 31O      0.131700
     39 H9          9.0620    2.0370    0.5670 hc        1 31O      0.064033
     40 H10         8.1450    3.6090    0.6490 hc        1 31O      0.064033
     41 H11         9.2410    3.1180    2.0160 hc        1 31O      0.064033
     42 H12         7.2860    2.0130   -0.9090 ha        1 31O      0.151000
     43 H13         6.3750    2.8770   -3.0250 ha        1 31O      0.149000
     44 H14         3.9000    4.3410   -5.2390 h1        1 31O      0.049700
     45 H15         5.5350    4.4970   -4.4090 h1        1 31O      0.049700
     46 H16         4.8280    2.8330   -4.7350 h1        1 31O      0.049700
     47 H17         2.6860    3.9610   -1.0160 ha        1 31O      0.171000
     48 H18         0.6570    3.4120    1.8820 ha        1 31O      0.149000
     49 H19        -0.6240    5.5400    2.0470 ha        1 31O      0.151500
     50 H20         3.0330    7.7880    1.4200 ha        1 31O      0.151500
     51 H21         4.3060    5.6560    1.2340 ha        1 31O      0.149000
@<TRIPOS>BOND
     1    1    2 1   
     2    1   31 1   
     3    1   32 1   
     4    1   33 1   
     5    2    3 1   
     6    3    4 2   
     7    3    5 1   
     8    5    6 1   
     9    5    7 1   
    10    5   34 1   
    11    6   35 1   
    12    6   36 1   
    13    6   37 1   
    14    7    8 1   
    15    7    9 1   
    16    7   38 1   
    17    8   23 2   
    18    9   10 2   
    19    9   14 1   
    20   10   11 1   
    21   11   12 2   
    22   12   13 1   
    23   12   14 1   
    24   13   39 1   
    25   13   40 1   
    26   13   41 1   
    27   14   15 1   
    28   15   16 ar  
    29   15   22 ar  
    30   16   17 ar  
    31   16   42 1   
    32   17   18 ar  
    33   17   43 1   
    34   18   19 1   
    35   18   21 ar  
    36   19   20 1   
    37   20   44 1   
    38   20   45 1   
    39   20   46 1   
    40   21   22 ar  
    41   21   47 1   
    42   22   23 1   
    43   23   24 1   
    44   24   25 ar  
    45   24   30 ar  
    46   25   26 ar  
    47   25   48 1   
    48   26   27 ar  
    49   26   49 1   
    50   27   28 1   
    51   27   29 ar  
    52   29   30 ar  
    53   29   50 1   
    54   30   51 1   
@<TRIPOS>SUBSTRUCTURE
     1 31O         1 TEMP              0 ****  ****    0 ROOT
