@<TRIPOS>MOLECULE
31O
   51    54     1     0     0
SMALL
bcc


@<TRIPOS>ATOM
      1 CAW        -0.0140   -0.1720    0.2400 c3        1 31O      0.124700
      2 OAU         1.3970    0.0420    0.2820 os        1 31O     -0.441900
      3 CAT         2.0360   -0.2980    1.4440 c         1 31O      0.633100
      4 OAV         1.3660   -0.7640    2.3650 o         1 31O     -0.525000
      5 CAS         3.5220   -0.0480    1.3840 c3        1 31O     -0.114700
      6 CBD         4.2470   -1.3520    1.6420 c3        1 31O     -0.094100
      7 CAI         3.8950    1.0130    2.4470 c3        1 31O      0.111200
      8 NAH         3.1630    2.2550    2.3590 n2        1 31O     -0.573900
      9 CAJ         5.3830    1.2380    2.4480 cc        1 31O      0.346800
     10 NAN         6.2860    0.8570    3.3990 nd        1 31O     -0.325000
     11 NAO         7.4750    1.3250    3.0870 nd        1 31O     -0.346000
     12 CAP         7.4060    2.0390    1.9190 cc        1 31O      0.378800
     13 CAR         8.5210    2.7480    1.2520 c3        1 31O     -0.124400
     14 NAK         6.0630    2.0050    1.4740 na        1 31O     -0.257800
     15 CAE         5.5210    2.5120    0.2780 ca        1 31O     -0.014200
     16 CAF         6.2770    2.4580   -0.9120 ca        1 31O     -0.108000
     17 CAA         5.7650    2.9380   -2.1110 ca        1 31O     -0.179000
     18 CAB         4.4740    3.4770   -2.1410 ca        1 31O      0.126100
     19 OAL         3.8580    3.9790   -3.2670 os        1 31O     -0.316900
     20 CAM         4.6010    3.9010   -4.4790 c3        1 31O      0.110700
     21 CAC         3.7030    3.5380   -0.9680 ca        1 31O     -0.113000
     22 CAD         4.2140    3.0640    0.2410 ca        1 31O     -0.152900
     23 CAG         3.3360    3.1420    1.4370 ce        1 31O      0.543500
     24 CAQ         2.5580    4.4070    1.5280 ca        1 31O     -0.144900
     25 CAX         1.1790    4.3780    1.7640 ca        1 31O     -0.088000
     26 CAY         0.4600    5.5680    1.8620 ca        1 31O     -0.131000
     27 CAZ         1.1270    6.7900    1.7350 ca        1 31O      0.029400
     28 Cl1         0.2550    8.2440    1.8550 cl        1 31O     -0.088400
     29 CBA         2.5080    6.8280    1.5130 ca        1 31O     -0.131000
     30 CBB         3.2190    5.6350    1.4100 ca        1 31O     -0.088000
     31 H1         -0.2390   -1.2560    0.3890 h1        1 31O      0.051367
     32 H2         -0.3040    0.1690   -0.7840 h1        1 31O      0.051367
     33 H3         -0.5150    0.4340    1.0320 h1        1 31O      0.051367
     34 H4          3.7860    0.3400    0.3600 hc        1 31O      0.085700
     35 H5          3.9670   -2.1040    0.8650 hc        1 31O      0.057033
     36 H6          5.3520   -1.1930    1.6040 hc        1 31O      0.057033
     37 H7          3.9770   -1.7580    2.6480 hc        1 31O      0.057033
     38 H8          3.6060    0.5880    3.4630 h1        1 31O      0.131700
     39 H9          9.2410    3.1240    2.0220 hc        1 31O      0.064033
     40 H10         9.0640    2.0430    0.5730 hc        1 31O      0.064033
     41 H11         8.1460    3.6150    0.6540 hc        1 31O      0.064033
     42 H12         7.2890    2.0190   -0.9040 ha        1 31O      0.151000
     43 H13         6.3790    2.8820   -3.0210 ha        1 31O      0.149000
     44 H14         4.8340    2.8380   -4.7320 h1        1 31O      0.049700
     45 H15         5.5390    4.5030   -4.4050 h1        1 31O      0.049700
     46 H16         3.9050    4.3460   -5.2360 h1        1 31O      0.049700
     47 H17         2.6880    3.9640   -1.0140 ha        1 31O      0.171000
     48 H18         0.6570    3.4150    1.8810 ha        1 31O      0.149000
     49 H19        -0.6250    5.5420    2.0450 ha        1 31O      0.151500
     50 H20         3.0320    7.7910    1.4240 ha        1 31O      0.151500
     51 H21         4.3060    5.6610    1.2380 ha        1 31O      0.149000
@<TRIPOS>BOND
     1    1    2 1   
     2    1   31 1   
     3    1   32 1   
     4    1   33 1   
     5    2    3 1   
     6    3    4 2   
     7    3    5 1   
     8    5    6 1   
     9    5    7 1   
    10    5   34 1   
    11    6   35 1   
    12    6   36 1   
    13    6   37 1   
    14    7    8 1   
    15    7    9 1   
    16    7   38 1   
    17    8   23 2   
    18    9   10 2   
    19    9   14 1   
    20   10   11 1   
    21   11   12 2   
    22   12   13 1   
    23   12   14 1   
    24   13   39 1   
    25   13   40 1   
    26   13   41 1   
    27   14   15 1   
    28   15   16 ar  
    29   15   22 ar  
    30   16   17 ar  
    31   16   42 1   
    32   17   18 ar  
    33   17   43 1   
    34   18   19 1   
    35   18   21 ar  
    36   19   20 1   
    37   20   44 1   
    38   20   45 1   
    39   20   46 1   
    40   21   22 ar  
    41   21   47 1   
    42   22   23 1   
    43   23   24 1   
    44   24   25 ar  
    45   24   30 ar  
    46   25   26 ar  
    47   25   48 1   
    48   26   27 ar  
    49   26   49 1   
    50   27   28 1   
    51   27   29 ar  
    52   29   30 ar  
    53   29   50 1   
    54   30   51 1   
@<TRIPOS>SUBSTRUCTURE
     1 31O         1 TEMP              0 ****  ****    0 ROOT
