@<TRIPOS>MOLECULE
31P
   54    57     1     0     0
SMALL
bcc


@<TRIPOS>ATOM
      1 CAW         0.0890   -0.0270   -0.0050 c3        1 31P      0.124700
      2 OAU         1.5040   -0.1720    0.1230 os        1 31P     -0.441900
      3 CAT         2.0150   -0.1220    1.3930 c         1 31P      0.635100
      4 OAV         1.2320    0.0350    2.3300 o         1 31P     -0.526000
      5 CAS         3.5140   -0.2860    1.4250 c3        1 31P     -0.115700
      6 CBD         3.8680   -1.4460    2.3450 c3        1 31P     -0.080400
      7 CBE         3.4170   -2.7650    1.7720 c3        1 31P     -0.097100
      8 CAI         4.1450    1.0350    1.9310 c3        1 31P      0.112200
      9 NAH         3.7300    2.2220    1.2190 n2        1 31P     -0.573900
     10 CAJ         5.6440    0.9110    1.9810 cc        1 31P      0.345800
     11 NAN         6.4410    0.8430    3.0880 nd        1 31P     -0.325000
     12 NAO         7.7040    0.8480    2.7200 nd        1 31P     -0.346000
     13 CAP         7.7930    0.9260    1.3550 cc        1 31P      0.378800
     14 CAR         9.0370    0.9840    0.5550 c3        1 31P     -0.124400
     15 NAK         6.4760    0.9700    0.8400 na        1 31P     -0.257800
     16 CAE         6.0590    0.9700   -0.5040 ca        1 31P     -0.015200
     17 CAF         6.7670    0.2090   -1.4570 ca        1 31P     -0.107000
     18 CAA         6.3720    0.1800   -2.7890 ca        1 31P     -0.180000
     19 CAB         5.2480    0.9110   -3.1900 ca        1 31P      0.126100
     20 OAL         4.7580    0.9570   -4.4780 os        1 31P     -0.316900
     21 CAM         5.4480    0.1680   -5.4420 c3        1 31P      0.110700
     22 CAC         4.5270    1.6730   -2.2560 ca        1 31P     -0.113000
     23 CAD         4.9220    1.7120   -0.9180 ca        1 31P     -0.152900
     24 CAG         4.1010    2.5220    0.0190 ce        1 31P      0.544500
     25 CAQ         3.6490    3.8210   -0.5480 ca        1 31P     -0.144900
     26 CAX         2.3040    4.2000   -0.4730 ca        1 31P     -0.088000
     27 CAY         1.8920    5.4250   -0.9950 ca        1 31P     -0.131000
     28 CAZ         2.8310    6.2770   -1.5830 ca        1 31P      0.029400
     29 CL1         2.3320    7.7710   -2.2190 cl        1 31P     -0.088400
     30 CBA         4.1800    5.9110   -1.6490 ca        1 31P     -0.131000
     31 CBB         4.5850    4.6840   -1.1320 ca        1 31P     -0.088000
     32 H1         -0.2270    0.9700    0.3870 h1        1 31P      0.051367
     33 H2         -0.0870   -0.1100   -1.1050 h1        1 31P      0.051367
     34 H3         -0.4300   -0.8400    0.5570 h1        1 31P      0.051367
     35 H4          3.8810   -0.5020    0.3830 hc        1 31P      0.086700
     36 H5          4.9790   -1.4650    2.5010 hc        1 31P      0.068700
     37 H6          3.3880   -1.2800    3.3470 hc        1 31P      0.068700
     38 H7          2.3150   -2.7580    1.5890 hc        1 31P      0.039033
     39 H8          3.9330   -2.9750    0.8040 hc        1 31P      0.039033
     40 H9          3.6530   -3.5910    2.4850 hc        1 31P      0.039033
     41 H10         3.7730    1.2000    2.9940 h1        1 31P      0.130700
     42 H11         9.8350    1.5110    1.1380 hc        1 31P      0.064033
     43 H12         8.8730    1.5300   -0.4060 hc        1 31P      0.064033
     44 H13         9.3900   -0.0540    0.3310 hc        1 31P      0.064033
     45 H14         7.6440   -0.3840   -1.1500 ha        1 31P      0.151000
     46 H15         6.9450   -0.4220   -3.5090 ha        1 31P      0.149000
     47 H16         5.4150   -0.9130   -5.1640 h1        1 31P      0.049367
     48 H17         6.5040    0.5150   -5.5520 h1        1 31P      0.049367
     49 H18         4.8710    0.3520   -6.3840 h1        1 31P      0.049367
     50 H19         3.6430    2.2390   -2.5910 ha        1 31P      0.171000
     51 H20         1.5680    3.5350    0.0050 ha        1 31P      0.149000
     52 H21         0.8330    5.7180   -0.9360 ha        1 31P      0.151500
     53 H22         4.9190    6.5880   -2.1040 ha        1 31P      0.151500
     54 H23         5.6460    4.3940   -1.1800 ha        1 31P      0.149000
@<TRIPOS>BOND
     1    1    2 1   
     2    1   32 1   
     3    1   33 1   
     4    1   34 1   
     5    2    3 1   
     6    3    4 2   
     7    3    5 1   
     8    5    6 1   
     9    5    8 1   
    10    5   35 1   
    11    6    7 1   
    12    6   36 1   
    13    6   37 1   
    14    7   38 1   
    15    7   39 1   
    16    7   40 1   
    17    8    9 1   
    18    8   10 1   
    19    8   41 1   
    20    9   24 2   
    21   10   11 2   
    22   10   15 1   
    23   11   12 1   
    24   12   13 2   
    25   13   14 1   
    26   13   15 1   
    27   14   42 1   
    28   14   43 1   
    29   14   44 1   
    30   15   16 1   
    31   16   17 ar  
    32   16   23 ar  
    33   17   18 ar  
    34   17   45 1   
    35   18   19 ar  
    36   18   46 1   
    37   19   20 1   
    38   19   22 ar  
    39   20   21 1   
    40   21   47 1   
    41   21   48 1   
    42   21   49 1   
    43   22   23 ar  
    44   22   50 1   
    45   23   24 1   
    46   24   25 1   
    47   25   26 ar  
    48   25   31 ar  
    49   26   27 ar  
    50   26   51 1   
    51   27   28 ar  
    52   27   52 1   
    53   28   29 1   
    54   28   30 ar  
    55   30   31 ar  
    56   30   53 1   
    57   31   54 1   
@<TRIPOS>SUBSTRUCTURE
     1 31P         1 TEMP              0 ****  ****    0 ROOT
