@<TRIPOS>MOLECULE
31P
   54    57     1     0     0
SMALL
bcc


@<TRIPOS>ATOM
      1 CAW         0.0910   -0.0240   -0.0040 c3        1 31P      0.124700
      2 OAU         1.5050   -0.1700    0.1250 os        1 31P     -0.441900
      3 CAT         2.0160   -0.1170    1.3950 c         1 31P      0.635100
      4 OAV         1.2330    0.0410    2.3310 o         1 31P     -0.526000
      5 CAS         3.5140   -0.2810    1.4270 c3        1 31P     -0.115700
      6 CBD         3.8680   -1.4410    2.3490 c3        1 31P     -0.080400
      7 CBE         3.4170   -2.7600    1.7760 c3        1 31P     -0.097100
      8 CAI         4.1460    1.0400    1.9320 c3        1 31P      0.112200
      9 NAH         3.7320    2.2260    1.2190 n2        1 31P     -0.573900
     10 CAJ         5.6450    0.9150    1.9830 cc        1 31P      0.345800
     11 NAN         6.4420    0.8480    3.0900 nd        1 31P     -0.325000
     12 NAO         7.7050    0.8520    2.7220 nd        1 31P     -0.346000
     13 CAP         7.7950    0.9290    1.3570 cc        1 31P      0.378800
     14 CAR         9.0380    0.9870    0.5570 c3        1 31P     -0.124400
     15 NAK         6.4770    0.9730    0.8410 na        1 31P     -0.257800
     16 CAE         6.0600    0.9720   -0.5020 ca        1 31P     -0.015200
     17 CAF         6.7680    0.2100   -1.4550 ca        1 31P     -0.107000
     18 CAA         6.3740    0.1810   -2.7870 ca        1 31P     -0.180000
     19 CAB         5.2500    0.9110   -3.1880 ca        1 31P      0.126100
     20 OAL         4.7610    0.9570   -4.4770 os        1 31P     -0.316900
     21 CAM         5.4500    0.1670   -5.4410 c3        1 31P      0.110700
     22 CAC         4.5280    1.6740   -2.2550 ca        1 31P     -0.113000
     23 CAD         4.9240    1.7140   -0.9180 ca        1 31P     -0.152900
     24 CAG         4.1030    2.5250    0.0190 ce        1 31P      0.544500
     25 CAQ         3.6510    3.8240   -0.5490 ca        1 31P     -0.144900
     26 CAX         2.3070    4.2040   -0.4730 ca        1 31P     -0.088000
     27 CAY         1.8950    5.4290   -0.9960 ca        1 31P     -0.131000
     28 CAZ         2.8350    6.2790   -1.5860 ca        1 31P      0.029400
     29 CL1         2.3370    7.7730   -2.2240 cl        1 31P     -0.088400
     30 CBA         4.1830    5.9120   -1.6540 ca        1 31P     -0.131000
     31 CBB         4.5880    4.6840   -1.1350 ca        1 31P     -0.088000
     32 H1         -0.2250    0.9730    0.3860 h1        1 31P      0.051367
     33 H2         -0.0860   -0.1090   -1.1050 h1        1 31P      0.051367
     34 H3         -0.4290   -0.8360    0.5580 h1        1 31P      0.051367
     35 H4          3.8820   -0.4990    0.3850 hc        1 31P      0.086700
     36 H5          4.9790   -1.4600    2.5050 hc        1 31P      0.068700
     37 H6          3.3870   -1.2740    3.3500 hc        1 31P      0.068700
     38 H7          3.6520   -3.5860    2.4910 hc        1 31P      0.039033
     39 H8          3.9330   -2.9720    0.8090 hc        1 31P      0.039033
     40 H9          2.3150   -2.7530    1.5920 hc        1 31P      0.039033
     41 H10         3.7740    1.2050    2.9950 h1        1 31P      0.130700
     42 H11         8.8740    1.5320   -0.4050 hc        1 31P      0.064033
     43 H12         9.8360    1.5140    1.1390 hc        1 31P      0.064033
     44 H13         9.3920   -0.0520    0.3330 hc        1 31P      0.064033
     45 H14         7.6450   -0.3830   -1.1470 ha        1 31P      0.151000
     46 H15         6.9460   -0.4220   -3.5070 ha        1 31P      0.149000
     47 H16         5.4180   -0.9140   -5.1620 h1        1 31P      0.049367
     48 H17         4.8740    0.3510   -6.3830 h1        1 31P      0.049367
     49 H18         6.5060    0.5140   -5.5500 h1        1 31P      0.049367
     50 H19         3.6440    2.2400   -2.5910 ha        1 31P      0.171000
     51 H20         1.5710    3.5400    0.0070 ha        1 31P      0.149000
     52 H21         0.8360    5.7240   -0.9360 ha        1 31P      0.151500
     53 H22         4.9220    6.5880   -2.1110 ha        1 31P      0.151500
     54 H23         5.6480    4.3930   -1.1840 ha        1 31P      0.149000
@<TRIPOS>BOND
     1    1    2 1   
     2    1   32 1   
     3    1   33 1   
     4    1   34 1   
     5    2    3 1   
     6    3    4 2   
     7    3    5 1   
     8    5    6 1   
     9    5    8 1   
    10    5   35 1   
    11    6    7 1   
    12    6   36 1   
    13    6   37 1   
    14    7   38 1   
    15    7   39 1   
    16    7   40 1   
    17    8    9 1   
    18    8   10 1   
    19    8   41 1   
    20    9   24 2   
    21   10   11 2   
    22   10   15 1   
    23   11   12 1   
    24   12   13 2   
    25   13   14 1   
    26   13   15 1   
    27   14   42 1   
    28   14   43 1   
    29   14   44 1   
    30   15   16 1   
    31   16   17 ar  
    32   16   23 ar  
    33   17   18 ar  
    34   17   45 1   
    35   18   19 ar  
    36   18   46 1   
    37   19   20 1   
    38   19   22 ar  
    39   20   21 1   
    40   21   47 1   
    41   21   48 1   
    42   21   49 1   
    43   22   23 ar  
    44   22   50 1   
    45   23   24 1   
    46   24   25 1   
    47   25   26 ar  
    48   25   31 ar  
    49   26   27 ar  
    50   26   51 1   
    51   27   28 ar  
    52   27   52 1   
    53   28   29 1   
    54   28   30 ar  
    55   30   31 ar  
    56   30   53 1   
    57   31   54 1   
@<TRIPOS>SUBSTRUCTURE
     1 31P         1 TEMP              0 ****  ****    0 ROOT
