@<TRIPOS>MOLECULE
31P
   54    57     1     0     0
SMALL
bcc


@<TRIPOS>ATOM
      1 CAW         0.0920   -0.0200    0.0190 c3        1 31P      0.124700
      2 OAU         1.5080   -0.1660    0.1420 os        1 31P     -0.441900
      3 CAT         2.0240   -0.1120    1.4090 c         1 31P      0.635100
      4 OAV         1.2460    0.0490    2.3490 o         1 31P     -0.526000
      5 CAS         3.5230   -0.2760    1.4350 c3        1 31P     -0.115700
      6 CBD         3.8810   -1.4330    2.3580 c3        1 31P     -0.080400
      7 CBE         3.4270   -2.7540    1.7900 c3        1 31P     -0.097100
      8 CAI         4.1570    1.0460    1.9330 c3        1 31P      0.112200
      9 NAH         3.7400    2.2310    1.2200 n2        1 31P     -0.573900
     10 CAJ         5.6570    0.9220    1.9780 cc        1 31P      0.345800
     11 NAN         6.4580    0.8570    3.0810 nd        1 31P     -0.325000
     12 NAO         7.7200    0.8600    2.7070 nd        1 31P     -0.346000
     13 CAP         7.8030    0.9330    1.3420 cc        1 31P      0.378800
     14 CAR         9.0430    0.9880    0.5360 c3        1 31P     -0.124400
     15 NAK         6.4840    0.9760    0.8320 na        1 31P     -0.257800
     16 CAE         6.0600    0.9720   -0.5090 ca        1 31P     -0.015200
     17 CAF         6.7630    0.2070   -1.4640 ca        1 31P     -0.107000
     18 CAA         6.3630    0.1750   -2.7940 ca        1 31P     -0.180000
     19 CAB         5.2370    0.9040   -3.1920 ca        1 31P      0.126100
     20 OAL         4.7420    0.9460   -4.4780 os        1 31P     -0.316900
     21 CAM         5.4270    0.1540   -5.4430 c3        1 31P      0.110700
     22 CAC         4.5200    1.6700   -2.2570 ca        1 31P     -0.113000
     23 CAD         4.9220    1.7130   -0.9210 ca        1 31P     -0.152900
     24 CAG         4.1060    2.5260    0.0170 ce        1 31P      0.544500
     25 CAQ         3.6510    3.8240   -0.5530 ca        1 31P     -0.144900
     26 CAX         2.3070    4.2040   -0.4720 ca        1 31P     -0.088000
     27 CAY         1.8930    5.4270   -0.9960 ca        1 31P     -0.131000
     28 CAZ         2.8300    6.2770   -1.5920 ca        1 31P      0.029400
     29 Cl1         2.3290    7.7690   -2.2310 cl        1 31P     -0.088400
     30 CBA         4.1780    5.9100   -1.6640 ca        1 31P     -0.131000
     31 CBB         4.5850    4.6840   -1.1440 ca        1 31P     -0.088000
     32 H1         -0.4250   -0.8320    0.5860 h1        1 31P      0.051367
     33 H2         -0.2220    0.9780    0.4100 h1        1 31P      0.051367
     34 H3         -0.0890   -0.1070   -1.0800 h1        1 31P      0.051367
     35 H4          3.8850   -0.4960    0.3920 hc        1 31P      0.086700
     36 H5          3.4050   -1.2640    3.3610 hc        1 31P      0.068700
     37 H6          4.9920   -1.4520    2.5090 hc        1 31P      0.068700
     38 H7          2.3240   -2.7470    1.6120 hc        1 31P      0.039033
     39 H8          3.6660   -3.5780    2.5060 hc        1 31P      0.039033
     40 H9          3.9390   -2.9680    0.8210 hc        1 31P      0.039033
     41 H10         3.7900    1.2140    2.9980 h1        1 31P      0.130700
     42 H11         9.8440    1.5170    1.1130 hc        1 31P      0.064033
     43 H12         8.8740    1.5310   -0.4270 hc        1 31P      0.064033
     44 H13         9.3950   -0.0510    0.3130 hc        1 31P      0.064033
     45 H14         7.6420   -0.3850   -1.1590 ha        1 31P      0.151000
     46 H15         6.9320   -0.4300   -3.5150 ha        1 31P      0.149000
     47 H16         5.3950   -0.9260   -5.1610 h1        1 31P      0.049367
     48 H17         4.8460    0.3360   -6.3830 h1        1 31P      0.049367
     49 H18         6.4820    0.5010   -5.5590 h1        1 31P      0.049367
     50 H19         3.6350    2.2350   -2.5910 ha        1 31P      0.171000
     51 H20         1.5730    3.5410    0.0130 ha        1 31P      0.149000
     52 H21         0.8340    5.7220   -0.9330 ha        1 31P      0.151500
     53 H22         4.9150    6.5840   -2.1250 ha        1 31P      0.151500
     54 H23         5.6450    4.3930   -1.1970 ha        1 31P      0.149000
@<TRIPOS>BOND
     1    1    2 1   
     2    1   32 1   
     3    1   33 1   
     4    1   34 1   
     5    2    3 1   
     6    3    4 2   
     7    3    5 1   
     8    5    6 1   
     9    5    8 1   
    10    5   35 1   
    11    6    7 1   
    12    6   36 1   
    13    6   37 1   
    14    7   38 1   
    15    7   39 1   
    16    7   40 1   
    17    8    9 1   
    18    8   10 1   
    19    8   41 1   
    20    9   24 2   
    21   10   11 2   
    22   10   15 1   
    23   11   12 1   
    24   12   13 2   
    25   13   14 1   
    26   13   15 1   
    27   14   42 1   
    28   14   43 1   
    29   14   44 1   
    30   15   16 1   
    31   16   17 ar  
    32   16   23 ar  
    33   17   18 ar  
    34   17   45 1   
    35   18   19 ar  
    36   18   46 1   
    37   19   20 1   
    38   19   22 ar  
    39   20   21 1   
    40   21   47 1   
    41   21   48 1   
    42   21   49 1   
    43   22   23 ar  
    44   22   50 1   
    45   23   24 1   
    46   24   25 1   
    47   25   26 ar  
    48   25   31 ar  
    49   26   27 ar  
    50   26   51 1   
    51   27   28 ar  
    52   27   52 1   
    53   28   29 1   
    54   28   30 ar  
    55   30   31 ar  
    56   30   53 1   
    57   31   54 1   
@<TRIPOS>SUBSTRUCTURE
     1 31P         1 TEMP              0 ****  ****    0 ROOT
