@<TRIPOS>MOLECULE
31R
   36    38     1     0     0
SMALL
bcc


@<TRIPOS>ATOM
      1 O11         0.1360   -0.9450   -0.1700 o         1 31R     -0.616500
      2 C6          1.3370   -0.6580   -0.1870 c         1 31R      0.729800
      3 O1          1.8490   -0.5950    1.1050 os        1 31R     -0.334200
      4 C2          3.1860   -0.2880    1.2650 ca        1 31R      0.165100
      5 C7          3.6250   -0.2500    2.5960 ca        1 31R     -0.264000
      6 C8          4.9670    0.0420    2.8430 ca        1 31R      0.155100
      7 O12         5.4620    0.0960    4.1260 oh        1 31R     -0.490100
      8 C5          2.2020   -0.3930   -1.3140 cc        1 31R     -0.313200
      9 C4          3.5190   -0.0830   -1.1550 cd        1 31R      0.152600
     10 C13         4.3290    0.2070   -2.3400 ca        1 31R     -0.103800
     11 C14         5.5940   -0.3590   -2.5360 ca        1 31R     -0.089500
     12 C15         6.3290   -0.0500   -3.6830 ca        1 31R     -0.132500
     13 C16         5.8010    0.8020   -4.6490 ca        1 31R     -0.129000
     14 C17         4.5320    1.3560   -4.4680 ca        1 31R     -0.132500
     15 C18         3.8000    1.0630   -3.3220 ca        1 31R     -0.089500
     16 C3          4.0600   -0.0260    0.1880 ca        1 31R     -0.175800
     17 C10         5.4050    0.2730    0.4850 ca        1 31R     -0.037000
     18 C9          5.8810    0.3020    1.7910 ca        1 31R     -0.098300
     19 C19         7.3080    0.5530    2.1310 c3        1 31R     -0.011100
     20 C20         8.1830    1.0430    1.0010 c3        1 31R     -0.200400
     21 C21         8.6260   -0.1050    0.0770 c         1 31R      0.909600
     22 O23         9.5580   -0.8620    0.4620 o         1 31R     -0.852800
     23 O22         8.0340   -0.2330   -1.0400 o         1 31R     -0.852800
     24 H1          2.9180   -0.4560    3.4100 ha        1 31R      0.144000
     25 H2          4.7440   -0.1390    4.7310 ho        1 31R      0.410000
     26 H3          1.7310   -0.4630   -2.3050 ha        1 31R      0.160000
     27 H4          6.0540   -1.0230   -1.7790 ha        1 31R      0.158500
     28 H5          7.3470   -0.4610   -3.7790 ha        1 31R      0.139500
     29 H6          6.3850    1.0490   -5.5470 ha        1 31R      0.120000
     30 H7          4.1120    2.0310   -5.2270 ha        1 31R      0.139500
     31 H8          2.8070    1.5120   -3.1740 ha        1 31R      0.158500
     32 H9          6.1280    0.4650   -0.3410 ha        1 31R      0.222000
     33 H10         7.3330    1.2980    2.9750 hc        1 31R      0.049200
     34 H11         7.7440   -0.4070    2.5290 hc        1 31R      0.049200
     35 H12         9.1060    1.5010    1.4420 hc        1 31R      0.029700
     36 H13         7.6590    1.8290    0.4030 hc        1 31R      0.029700
@<TRIPOS>BOND
     1    1    2 2   
     2    2    3 1   
     3    2    8 1   
     4    3    4 1   
     5    4    5 ar  
     6    4   16 ar  
     7    5    6 ar  
     8    5   24 1   
     9    6    7 1   
    10    6   18 ar  
    11    7   25 1   
    12    8    9 2   
    13    8   26 1   
    14    9   10 1   
    15    9   16 1   
    16   10   11 ar  
    17   10   15 ar  
    18   11   12 ar  
    19   11   27 1   
    20   12   13 ar  
    21   12   28 1   
    22   13   14 ar  
    23   13   29 1   
    24   14   15 ar  
    25   14   30 1   
    26   15   31 1   
    27   16   17 ar  
    28   17   18 ar  
    29   17   32 1   
    30   18   19 1   
    31   19   20 1   
    32   19   33 1   
    33   19   34 1   
    34   20   21 1   
    35   20   35 1   
    36   20   36 1   
    37   21   22 1   
    38   21   23 1   
@<TRIPOS>SUBSTRUCTURE
     1 31R         1 TEMP              0 ****  ****    0 ROOT
