@<TRIPOS>MOLECULE
31R
   36    38     1     0     0
SMALL
bcc


@<TRIPOS>ATOM
      1 O11         0.1160   -0.8540   -0.1700 o         1 31R     -0.616500
      2 C6          1.3220   -0.5880   -0.1870 c         1 31R      0.729800
      3 O1          1.8310   -0.5180    1.1060 os        1 31R     -0.334200
      4 C2          3.1740   -0.2330    1.2660 ca        1 31R      0.165100
      5 C7          3.6100   -0.1860    2.5980 ca        1 31R     -0.264000
      6 C8          4.9570    0.0860    2.8450 ca        1 31R      0.155100
      7 O12         5.4490    0.1460    4.1280 oh        1 31R     -0.490100
      8 C5          2.1940   -0.3520   -1.3150 cc        1 31R     -0.313200
      9 C4          3.5160   -0.0630   -1.1560 cd        1 31R      0.152600
     10 C13         4.3340    0.1990   -2.3420 ca        1 31R     -0.103800
     11 C14         5.5890   -0.3920   -2.5280 ca        1 31R     -0.089500
     12 C15         6.3320   -0.1090   -3.6770 ca        1 31R     -0.132500
     13 C16         5.8220    0.7410   -4.6540 ca        1 31R     -0.129000
     14 C17         4.5610    1.3190   -4.4830 ca        1 31R     -0.132500
     15 C18         3.8220    1.0520   -3.3360 ca        1 31R     -0.089500
     16 C3          4.0550    0.0010    0.1880 ca        1 31R     -0.175800
     17 C10         5.4040    0.2800    0.4840 ca        1 31R     -0.037000
     18 C9          5.8770    0.3170    1.7910 ca        1 31R     -0.098300
     19 C19         7.3080    0.5470    2.1330 c3        1 31R     -0.011100
     20 C20         8.1940    1.0070    0.9990 c3        1 31R     -0.200400
     21 C21         8.6180   -0.1600    0.0900 c         1 31R      0.909600
     22 O23         9.5360   -0.9280    0.4870 o         1 31R     -0.852800
     23 O22         8.0280   -0.2900   -1.0270 o         1 31R     -0.852800
     24 H1          2.8980   -0.3700    3.4120 ha        1 31R      0.144000
     25 H2          4.7250   -0.0690    4.7340 ho        1 31R      0.410000
     26 H3          1.7250   -0.4250   -2.3060 ha        1 31R      0.160000
     27 H4          6.0360   -1.0550   -1.7620 ha        1 31R      0.158500
     28 H5          7.3430   -0.5390   -3.7650 ha        1 31R      0.139500
     29 H6          6.4110    0.9670   -5.5540 ha        1 31R      0.120000
     30 H7          4.1560    1.9920   -5.2520 ha        1 31R      0.139500
     31 H8          2.8360    1.5200   -3.1960 ha        1 31R      0.158500
     32 H9          6.1320    0.4490   -0.3420 ha        1 31R      0.222000
     33 H10         7.3440    1.3020    2.9670 hc        1 31R      0.049200
     34 H11         7.7250   -0.4150    2.5440 hc        1 31R      0.049200
     35 H12         9.1240    1.4540    1.4360 hc        1 31R      0.029700
     36 H13         7.6860    1.7960    0.3900 hc        1 31R      0.029700
@<TRIPOS>BOND
     1    1    2 2   
     2    2    3 1   
     3    2    8 1   
     4    3    4 1   
     5    4    5 ar  
     6    4   16 ar  
     7    5    6 ar  
     8    5   24 1   
     9    6    7 1   
    10    6   18 ar  
    11    7   25 1   
    12    8    9 2   
    13    8   26 1   
    14    9   10 1   
    15    9   16 1   
    16   10   11 ar  
    17   10   15 ar  
    18   11   12 ar  
    19   11   27 1   
    20   12   13 ar  
    21   12   28 1   
    22   13   14 ar  
    23   13   29 1   
    24   14   15 ar  
    25   14   30 1   
    26   15   31 1   
    27   16   17 ar  
    28   17   18 ar  
    29   17   32 1   
    30   18   19 1   
    31   19   20 1   
    32   19   33 1   
    33   19   34 1   
    34   20   21 1   
    35   20   35 1   
    36   20   36 1   
    37   21   22 1   
    38   21   23 1   
@<TRIPOS>SUBSTRUCTURE
     1 31R         1 TEMP              0 ****  ****    0 ROOT
