@<TRIPOS>MOLECULE
31S
   44    46     1     0     0
SMALL
bcc


@<TRIPOS>ATOM
      1 C1         -0.0450    0.3190   -0.7060 ca        1 31S     -0.122500
      2 C2          1.2320   -0.1800   -0.4030 ca        1 31S     -0.055300
      3 C3          1.4830   -0.7050    0.8680 ca        1 31S     -0.122500
      4 C4          0.4780   -0.7350    1.8350 ca        1 31S     -0.136500
      5 C5         -0.7860   -0.2330    1.5210 ca        1 31S      0.002400
      6 C6         -1.0540    0.2950    0.2530 ca        1 31S     -0.136500
      7 Cl7        -2.0220   -0.2670    2.7020 cl        1 31S     -0.142400
      8 C8          2.2840   -0.1470   -1.4550 c3        1 31S     -0.052100
      9 C9          2.8650    1.2510   -1.6150 c3        1 31S     -0.013200
     10 C10         3.5620    1.4140   -2.9260 ce        1 31S     -0.143400
     11 C11         2.8740    1.6570   -4.0570 cf        1 31S     -0.141200
     12 C12         1.3770    1.8530   -4.1520 c         1 31S      0.896800
     13 O13         0.6030    0.9280   -3.7690 o         1 31S     -0.831800
     14 O14         0.9790    2.9460   -4.6440 o         1 31S     -0.831800
     15 C15         5.0210    1.3230   -2.9250 ca        1 31S      0.010200
     16 C16         5.6970    0.4490   -2.0580 ca        1 31S     -0.142000
     17 C17         7.0850    0.3670   -2.0650 ca        1 31S     -0.116000
     18 C18         7.8430    1.1560   -2.9420 cp        1 31S     -0.083000
     19 C19         7.1740    2.0310   -3.8080 ca        1 31S     -0.116000
     20 C20         5.7860    2.1160   -3.7970 ca        1 31S     -0.142000
     21 C21         9.3000    1.0680   -2.9510 cp        1 31S     -0.006000
     22 C22        10.0110    1.1290   -4.1600 ca        1 31S     -0.127000
     23 C23        11.4010    1.0450   -4.1670 ca        1 31S     -0.134000
     24 C24        12.1020    0.8980   -2.9710 ca        1 31S     -0.145000
     25 C25        11.4050    0.8370   -1.7650 ca        1 31S     -0.134000
     26 C26        10.0150    0.9200   -1.7530 ca        1 31S     -0.127000
     27 H1         -0.2290    0.7240   -1.7240 ha        1 31S      0.167500
     28 H3          2.4800   -1.1000    1.1110 ha        1 31S      0.167500
     29 H4          0.6820   -1.1490    2.8320 ha        1 31S      0.133500
     30 H6         -2.0520    0.6880    0.0120 ha        1 31S      0.133500
     31 H11         3.3940    1.7680   -5.0220 ha        1 31S      0.106000
     32 H16         5.1170   -0.1830   -1.3690 ha        1 31S      0.140000
     33 H17         7.5930   -0.3320   -1.3840 ha        1 31S      0.120500
     34 H19         7.7530    2.6670   -4.4950 ha        1 31S      0.120500
     35 H20         5.2750    2.8190   -4.4740 ha        1 31S      0.140000
     36 H22         9.4610    1.2380   -5.1070 ha        1 31S      0.135500
     37 H23        11.9460    1.0920   -5.1210 ha        1 31S      0.122500
     38 H24        13.1990    0.8320   -2.9780 ha        1 31S      0.121000
     39 H25        11.9540    0.7240   -0.8190 ha        1 31S      0.122500
     40 H26         9.4690    0.8780   -0.7980 ha        1 31S      0.135500
     41 H8          3.0970   -0.8800   -1.2170 hc        1 31S      0.068200
     42 H8A         1.8140   -0.4390   -2.4410 hc        1 31S      0.068200
     43 H9          3.5620    1.4760   -0.7660 hc        1 31S      0.044700
     44 H9A         2.0190    1.9930   -1.5730 hc        1 31S      0.044700
@<TRIPOS>BOND
     1    1    2 ar  
     2    1    6 ar  
     3    1   27 1   
     4    2    3 ar  
     5    2    8 1   
     6    3    4 ar  
     7    3   28 1   
     8    4    5 ar  
     9    4   29 1   
    10    5    6 ar  
    11    5    7 1   
    12    6   30 1   
    13    8    9 1   
    14    8   41 1   
    15    8   42 1   
    16    9   10 1   
    17    9   43 1   
    18    9   44 1   
    19   10   11 2   
    20   10   15 1   
    21   11   12 1   
    22   11   31 1   
    23   12   13 1   
    24   12   14 1   
    25   15   16 ar  
    26   15   20 ar  
    27   16   17 ar  
    28   16   32 1   
    29   17   18 ar  
    30   17   33 1   
    31   18   19 ar  
    32   18   21 1   
    33   19   20 ar  
    34   19   34 1   
    35   20   35 1   
    36   21   22 ar  
    37   21   26 ar  
    38   22   23 ar  
    39   22   36 1   
    40   23   24 ar  
    41   23   37 1   
    42   24   25 ar  
    43   24   38 1   
    44   25   26 ar  
    45   25   39 1   
    46   26   40 1   
@<TRIPOS>SUBSTRUCTURE
     1 31S         1 TEMP              0 ****  ****    0 ROOT
