@<TRIPOS>MOLECULE
31S
   44    46     1     0     0
SMALL
bcc


@<TRIPOS>ATOM
      1 C1         -0.1290    0.0220    0.0060 ca        1 31S     -0.124500
      2 C2          1.2600    0.0100   -0.1630 ca        1 31S     -0.054300
      3 C3          2.0830   -0.0720    0.9690 ca        1 31S     -0.124500
      4 C4          1.5330   -0.1410    2.2460 ca        1 31S     -0.125500
      5 C5          0.1430   -0.1290    2.3960 ca        1 31S      0.003400
      6 C6         -0.6920   -0.0460    1.2790 ca        1 31S     -0.125500
      7 CL7        -0.5390   -0.2160    3.9570 cl        1 31S     -0.123400
      8 C8          1.8620    0.0710   -1.5220 c3        1 31S     -0.049100
      9 C9          2.5640    1.3970   -1.7760 c3        1 31S     -0.025200
     10 C10         3.2320    1.4120   -3.1170 ce        1 31S     -0.151400
     11 C11         2.4780    1.5500   -4.2210 cf        1 31S     -0.130200
     12 C12         2.8950    1.5690   -5.6750 c         1 31S      0.898800
     13 O13         2.6970    0.5190   -6.3460 o         1 31S     -0.826800
     14 O14         3.3540    2.6470   -6.1510 o         1 31S     -0.826800
     15 C15         4.6870    1.2850   -3.1060 ca        1 31S      0.014200
     16 C16         5.3270    0.4550   -2.1710 ca        1 31S     -0.134000
     17 C17         6.7130    0.3550   -2.1310 ca        1 31S     -0.122000
     18 C18         7.5050    1.0870   -3.0260 cp        1 31S     -0.083000
     19 C19         6.8700    1.9090   -3.9680 ca        1 31S     -0.122000
     20 C20         5.4830    2.0070   -4.0110 ca        1 31S     -0.134000
     21 C21         8.9610    0.9940   -2.9770 cp        1 31S      0.000000
     22 C22         9.7560    2.1310   -3.1900 ca        1 31S     -0.127500
     23 C23        11.1450    2.0420   -3.1400 ca        1 31S     -0.135000
     24 C24        11.7620    0.8190   -2.8770 ca        1 31S     -0.149000
     25 C25        10.9810   -0.3170   -2.6670 ca        1 31S     -0.135000
     26 C26         9.5910   -0.2330   -2.7160 ca        1 31S     -0.127500
     27 H1         -0.7850    0.0890   -0.8760 ha        1 31S      0.141500
     28 H3          3.1770   -0.0790    0.8410 ha        1 31S      0.141500
     29 H4          2.1870   -0.2040    3.1270 ha        1 31S      0.138000
     30 H6         -1.7850   -0.0350    1.4000 ha        1 31S      0.138000
     31 H11         1.3830    1.6430   -4.1060 ha        1 31S      0.099000
     32 H16         4.7240   -0.1350   -1.4640 ha        1 31S      0.160500
     33 H17         7.1920   -0.3000   -1.3890 ha        1 31S      0.119500
     34 H19         7.4740    2.4730   -4.6950 ha        1 31S      0.119500
     35 H20         4.9900    2.6360   -4.7810 ha        1 31S      0.160500
     36 H22         9.2730    3.0980   -3.3960 ha        1 31S      0.136000
     37 H23        11.7570    2.9400   -3.3080 ha        1 31S      0.120500
     38 H24        12.8580    0.7500   -2.8390 ha        1 31S      0.118000
     39 H25        11.4630   -1.2850   -2.4660 ha        1 31S      0.120500
     40 H26         8.9790   -1.1330   -2.5610 ha        1 31S      0.136000
     41 H8          2.6020   -0.7670   -1.6350 hc        1 31S      0.060200
     42 H8A         1.0740   -0.0790   -2.3080 hc        1 31S      0.060200
     43 H9          3.3100    1.5870   -0.9590 hc        1 31S      0.035700
     44 H9A         1.8080    2.2260   -1.7280 hc        1 31S      0.035700
@<TRIPOS>BOND
     1    1    2 ar  
     2    1    6 ar  
     3    1   27 1   
     4    2    3 ar  
     5    2    8 1   
     6    3    4 ar  
     7    3   28 1   
     8    4    5 ar  
     9    4   29 1   
    10    5    6 ar  
    11    5    7 1   
    12    6   30 1   
    13    8    9 1   
    14    8   41 1   
    15    8   42 1   
    16    9   10 1   
    17    9   43 1   
    18    9   44 1   
    19   10   11 2   
    20   10   15 1   
    21   11   12 1   
    22   11   31 1   
    23   12   13 1   
    24   12   14 1   
    25   15   16 ar  
    26   15   20 ar  
    27   16   17 ar  
    28   16   32 1   
    29   17   18 ar  
    30   17   33 1   
    31   18   19 ar  
    32   18   21 1   
    33   19   20 ar  
    34   19   34 1   
    35   20   35 1   
    36   21   22 ar  
    37   21   26 ar  
    38   22   23 ar  
    39   22   36 1   
    40   23   24 ar  
    41   23   37 1   
    42   24   25 ar  
    43   24   38 1   
    44   25   26 ar  
    45   25   39 1   
    46   26   40 1   
@<TRIPOS>SUBSTRUCTURE
     1 31S         1 TEMP              0 ****  ****    0 ROOT
