@<TRIPOS>MOLECULE
31T
   44    47     1     0     0
SMALL
bcc


@<TRIPOS>ATOM
      1 C8         -0.0140    0.2100   -0.0540 cc        1 31T     -0.247600
      2 C3          1.3450    0.2080   -0.1630 cd        1 31T      0.042900
      3 O1          1.9540    0.3890   -1.3730 oh        1 31T     -0.478100
      4 C4          2.1870    0.0080    1.0400 c         1 31T      0.631700
      5 O9          3.4330   -0.0050    1.0160 o         1 31T     -0.637500
      6 N5          1.4770   -0.1710    2.2360 n         1 31T     -0.269900
      7 N6          0.1580   -0.1700    2.3540 nd        1 31T     -0.455300
      8 C7         -0.5890    0.0110    1.2680 cc        1 31T      0.378600
      9 C10        -2.0860    0.0200    1.3290 c3        1 31T     -0.097700
     10 C11        -2.6700   -0.1030    2.7240 c3        1 31T     -0.018100
     11 C12        -4.1580   -0.0810    2.6840 ca        1 31T     -0.135300
     12 C13        -4.8550    1.1360    2.4730 ca        1 31T      0.175100
     13 C14        -6.2500    1.1810    2.4430 ca        1 31T     -0.245000
     14 O18        -4.0910    2.2620    2.2920 oh        1 31T     -0.489100
     15 C17        -4.8940   -1.2430    2.8700 ca        1 31T     -0.040000
     16 C16        -6.3000   -1.2390    2.8570 ca        1 31T     -0.176800
     17 C15        -6.9630   -0.0140    2.6310 ca        1 31T      0.191100
     18 O22        -8.3320    0.1010    2.5740 os        1 31T     -0.326200
     19 C21        -9.1060   -1.0530    2.7250 c         1 31T      0.722800
     20 O23       -10.3030   -0.7910    2.6270 o         1 31T     -0.563500
     21 C20        -8.4560   -2.3280    2.9690 cc        1 31T     -0.262200
     22 C19        -7.1050   -2.4300    3.0470 cd        1 31T      0.110600
     23 C24        -6.4700   -3.7230    3.3140 ca        1 31T     -0.081800
     24 C25        -6.7340   -4.8140    2.4730 ca        1 31T     -0.108500
     25 C26        -6.1500   -6.0520    2.7320 ca        1 31T     -0.131000
     26 C27        -5.3110   -6.2150    3.8340 ca        1 31T     -0.115000
     27 C28        -5.0540   -5.1350    4.6790 ca        1 31T     -0.131000
     28 C29        -5.6280   -3.8920    4.4210 ca        1 31T     -0.108500
     29 H1         -0.6740    0.3560   -0.9180 ha        1 31T      0.168000
     30 H2          2.9180    0.3550   -1.2270 ho        1 31T      0.451000
     31 H3          1.9770   -0.3070    3.0960 hn        1 31T      0.364500
     32 H4         -2.4430    0.9840    0.8700 hc        1 31T      0.067200
     33 H5         -2.4570   -0.8250    0.6870 hc        1 31T      0.067200
     34 H6         -2.3170   -1.0530    3.2060 hc        1 31T      0.065700
     35 H7         -2.3110    0.7550    3.3550 hc        1 31T      0.065700
     36 H8         -6.7950    2.1200    2.2770 ha        1 31T      0.163000
     37 H9         -4.6870    3.0220    2.2040 ho        1 31T      0.429000
     38 H10        -4.3670   -2.1990    3.0330 ha        1 31T      0.154000
     39 H11        -9.1250   -3.1920    3.0960 ha        1 31T      0.173000
     40 H12        -7.4010   -4.6870    1.6070 ha        1 31T      0.141500
     41 H13        -6.3560   -6.9030    2.0660 ha        1 31T      0.138500
     42 H14        -4.8540   -7.1950    4.0390 ha        1 31T      0.137000
     43 H15        -4.3980   -5.2630    5.5530 ha        1 31T      0.138500
     44 H16        -5.4290   -3.0410    5.0910 ha        1 31T      0.141500
@<TRIPOS>BOND
     1    1    2 2   
     2    1    8 1   
     3    1   29 1   
     4    2    3 1   
     5    2    4 1   
     6    3   30 1   
     7    4    5 2   
     8    4    6 1   
     9    6    7 1   
    10    6   31 1   
    11    7    8 2   
    12    8    9 1   
    13    9   10 1   
    14    9   32 1   
    15    9   33 1   
    16   10   11 1   
    17   10   34 1   
    18   10   35 1   
    19   11   12 ar  
    20   11   15 ar  
    21   12   13 ar  
    22   12   14 1   
    23   13   17 ar  
    24   13   36 1   
    25   14   37 1   
    26   15   16 ar  
    27   15   38 1   
    28   16   17 ar  
    29   16   22 1   
    30   17   18 1   
    31   18   19 1   
    32   19   20 2   
    33   19   21 1   
    34   21   22 2   
    35   21   39 1   
    36   22   23 1   
    37   23   24 ar  
    38   23   28 ar  
    39   24   25 ar  
    40   24   40 1   
    41   25   26 ar  
    42   25   41 1   
    43   26   27 ar  
    44   26   42 1   
    45   27   28 ar  
    46   27   43 1   
    47   28   44 1   
@<TRIPOS>SUBSTRUCTURE
     1 31T         1 TEMP              0 ****  ****    0 ROOT
