@<TRIPOS>MOLECULE
31T
   44    47     1     0     0
SMALL
bcc


@<TRIPOS>ATOM
      1 C8         -0.0090    0.2120   -0.0510 cc        1 31T     -0.247600
      2 C3          1.3510    0.2100   -0.1590 cd        1 31T      0.042900
      3 O1          1.9620    0.3990   -1.3660 oh        1 31T     -0.478100
      4 C4          2.1910    0.0030    1.0440 c         1 31T      0.631700
      5 O9          3.4370   -0.0110    1.0220 o         1 31T     -0.637500
      6 N5          1.4790   -0.1850    2.2380 n         1 31T     -0.269900
      7 N6          0.1600   -0.1840    2.3540 nd        1 31T     -0.455300
      8 C7         -0.5850    0.0050    1.2680 cc        1 31T      0.378600
      9 C10        -2.0830    0.0140    1.3270 c3        1 31T     -0.097700
     10 C11        -2.6680   -0.1070    2.7210 c3        1 31T     -0.018100
     11 C12        -4.1560   -0.0830    2.6800 ca        1 31T     -0.135300
     12 C13        -4.8510    1.1350    2.4660 ca        1 31T      0.175100
     13 C14        -6.2450    1.1820    2.4350 ca        1 31T     -0.245000
     14 O18        -4.0850    2.2590    2.2840 oh        1 31T     -0.490100
     15 C17        -4.8950   -1.2440    2.8680 ca        1 31T     -0.040000
     16 C16        -6.3010   -1.2370    2.8540 ca        1 31T     -0.176800
     17 C15        -6.9610   -0.0110    2.6250 ca        1 31T      0.191100
     18 O22        -8.3300    0.1060    2.5660 os        1 31T     -0.326200
     19 C21        -9.1060   -1.0470    2.7190 c         1 31T      0.722800
     20 O23       -10.3030   -0.7830    2.6180 o         1 31T     -0.563500
     21 C20        -8.4580   -2.3220    2.9660 cc        1 31T     -0.262200
     22 C19        -7.1070   -2.4260    3.0450 cd        1 31T      0.110600
     23 C24        -6.4750   -3.7200    3.3150 ca        1 31T     -0.081800
     24 C25        -6.7400   -4.8120    2.4770 ca        1 31T     -0.108500
     25 C26        -6.1580   -6.0510    2.7400 ca        1 31T     -0.131000
     26 C27        -5.3210   -6.2130    3.8430 ca        1 31T     -0.115000
     27 C28        -5.0620   -5.1310    4.6850 ca        1 31T     -0.131000
     28 C29        -5.6340   -3.8870    4.4240 ca        1 31T     -0.108500
     29 H1         -0.6680    0.3640   -0.9160 ha        1 31T      0.168000
     30 H2          2.9250    0.3640   -1.2200 ho        1 31T      0.451000
     31 H3          1.9780   -0.3260    3.0980 hn        1 31T      0.364500
     32 H4         -2.4390    0.9770    0.8670 hc        1 31T      0.067200
     33 H5         -2.4530   -0.8320    0.6860 hc        1 31T      0.067200
     34 H6         -2.3170   -1.0570    3.2040 hc        1 31T      0.065700
     35 H7         -2.3080    0.7510    3.3530 hc        1 31T      0.065700
     36 H8         -6.7900    2.1220    2.2670 ha        1 31T      0.163000
     37 H9         -4.6800    3.0200    2.1950 ho        1 31T      0.429000
     38 H10        -4.3690   -2.2000    3.0330 ha        1 31T      0.154000
     39 H11        -9.1290   -3.1840    3.0940 ha        1 31T      0.173000
     40 H12        -7.4060   -4.6860    1.6100 ha        1 31T      0.141500
     41 H13        -6.3650   -6.9030    2.0750 ha        1 31T      0.138500
     42 H14        -4.8660   -7.1930    4.0510 ha        1 31T      0.137000
     43 H15        -4.4080   -5.2580    5.5600 ha        1 31T      0.138500
     44 H16        -5.4340   -3.0360    5.0920 ha        1 31T      0.141500
@<TRIPOS>BOND
     1    1    2 2   
     2    1    8 1   
     3    1   29 1   
     4    2    3 1   
     5    2    4 1   
     6    3   30 1   
     7    4    5 2   
     8    4    6 1   
     9    6    7 1   
    10    6   31 1   
    11    7    8 2   
    12    8    9 1   
    13    9   10 1   
    14    9   32 1   
    15    9   33 1   
    16   10   11 1   
    17   10   34 1   
    18   10   35 1   
    19   11   12 ar  
    20   11   15 ar  
    21   12   13 ar  
    22   12   14 1   
    23   13   17 ar  
    24   13   36 1   
    25   14   37 1   
    26   15   16 ar  
    27   15   38 1   
    28   16   17 ar  
    29   16   22 1   
    30   17   18 1   
    31   18   19 1   
    32   19   20 2   
    33   19   21 1   
    34   21   22 2   
    35   21   39 1   
    36   22   23 1   
    37   23   24 ar  
    38   23   28 ar  
    39   24   25 ar  
    40   24   40 1   
    41   25   26 ar  
    42   25   41 1   
    43   26   27 ar  
    44   26   42 1   
    45   27   28 ar  
    46   27   43 1   
    47   28   44 1   
@<TRIPOS>SUBSTRUCTURE
     1 31T         1 TEMP              0 ****  ****    0 ROOT
