@<TRIPOS>MOLECULE
31U
   55    52     1     0     0
SMALL
bcc


@<TRIPOS>ATOM
      1 N5         -1.9350    0.2820   -4.1290 n3        1 31U     -0.339000
      2 C4         -1.1670   -0.8810   -3.8520 c3        1 31U     -0.023000
      3 C33        -2.0280   -2.1180   -4.0630 c3        1 31U     -0.145000
      4 C17        -2.9450   -1.9000   -5.2830 c3        1 31U     -0.109000
      5 C12        -4.3950   -1.8500   -4.8230 c3        1 31U     -0.208500
      6 C49        -2.7600   -3.0610   -6.2780 c3        1 31U     -0.208500
      7 C14        -0.6850   -0.8390   -2.4160 c1        1 31U      0.255000
      8 O32        -1.4530   -1.1210   -1.5030 o         1 31U     -0.381000
      9 N1          0.6760   -0.4360   -2.1180 n2        1 31U     -0.320000
     10 C1          1.3430   -0.3030   -0.6620 c3        1 31U      0.000000
     11 C7          0.7660    0.8830    0.2080 c2        1 31U      0.295000
     12 O22         0.1770    1.8000   -0.3300 o         1 31U     -0.381000
     13 C2          2.5970   -0.1850   -0.9550 c3        1 31U     -0.167000
     14 C3          2.6770    0.4650   -2.4170 c3        1 31U     -0.170000
     15 C32         1.7360   -0.0590   -3.1060 c3        1 31U     -0.031000
     16 N23         0.9530    0.8860    1.6470 n         1 31U     -0.361000
     17 C24         0.2940    1.8510    2.4450 c3        1 31U      0.006000
     18 C25         0.7050    1.6680    3.9160 c2        1 31U     -0.101000
     19 C30         0.0270    0.7580    4.7170 c2        1 31U     -0.125000
     20 C29         0.3630    0.6260    6.0480 c1        1 31U     -0.100000
     21 C28         1.3790    1.4040    6.5890 c1        1 31U     -0.111000
     22 C21         1.7790    1.2280    8.0490 c2        1 31U      0.115000
     23 N46         2.8090    0.4900    8.3590 n1        1 31U     -0.303000
     24 N47         1.0210    1.8700    9.0830 n3        1 31U     -0.331000
     25 C27         2.0550    2.3120    5.7910 c1        1 31U     -0.117000
     26 C26         1.7190    2.4450    4.4560 c1        1 31U     -0.117000
     27 HN5        -1.8800    0.8610   -3.4200 hn        1 31U      0.158000
     28 HN5A       -1.6080    0.6930   -4.8880 hn        1 31U      0.158000
     29 H4         -0.4010   -0.9130   -4.4510 h1        1 31U      0.113000
     30 H33        -1.4560   -2.8900   -4.2200 hc        1 31U      0.099000
     31 H33A       -2.5770   -2.2740   -3.2640 hc        1 31U      0.099000
     32 H17        -2.7120   -1.0540   -5.7200 hc        1 31U      0.105000
     33 H12        -4.5210   -1.0860   -4.2360 hc        1 31U      0.072833
     34 H12A       -4.9790   -1.7630   -5.5980 hc        1 31U      0.072833
     35 H12B       -4.6120   -2.6660   -4.3440 hc        1 31U      0.072833
     36 H49        -3.1740   -2.8260   -7.1350 hc        1 31U      0.072833
     37 H49A       -1.7930   -3.2280   -6.4140 hc        1 31U      0.072833
     38 H49B       -3.1860   -3.8710   -5.9200 hc        1 31U      0.072833
     39 H1          1.1610   -1.0810   -0.0940 h1        1 31U      0.125000
     40 H2          3.0440    0.4070   -0.2960 hc        1 31U      0.115000
     41 H2A         3.0230   -1.0630   -0.9570 hc        1 31U      0.115000
     42 H3          3.5490    0.2630   -2.8290 hc        1 31U      0.097000
     43 H3A         2.5500    1.4340   -2.3600 hc        1 31U      0.097000
     44 H32         1.3830    0.5920   -3.7480 h1        1 31U      0.088500
     45 H32A        2.0660   -0.8660   -3.5800 h1        1 31U      0.088500
     46 HN23        1.4710    0.2330    2.0460 hn        1 31U      0.249000
     47 H24         0.5450    2.7510    2.1450 h1        1 31U      0.107000
     48 H24A       -0.6670    1.7380    2.3600 h1        1 31U      0.107000
     49 H30        -0.6810    0.2160    4.3420 ha        1 31U      0.135000
     50 H29        -0.1120   -0.0110    6.6070 ha        1 31U      0.149000
     51 HN46        3.2960    0.0770    7.6940 DU        1 31U      0.151000
     52 HN47        1.1360    1.6150    9.9690 hn        1 31U      0.192500
     53 HN4A        0.4670    2.5570    8.8780 hn        1 31U      0.192500
     54 H27         2.7680    2.8580    6.1700 ha        1 31U      0.140000
     55 H26         2.1950    3.0840    3.8950 ha        1 31U      0.159000
@<TRIPOS>BOND
     1    1    2 1   
     2    1   27 1   
     3    1   28 1   
     4    2    3 1   
     5    2    7 1   
     6    2   29 1   
     7    3    4 1   
     8    3   30 1   
     9    3   31 1   
    10    4    5 1   
    11    4    6 1   
    12    4   32 1   
    13    5   33 1   
    14    5   34 1   
    15    5   35 1   
    16    6   36 1   
    17    6   37 1   
    18    6   38 1   
    19    7    8 1   
    20    9   10 1   
    21    9   15 1   
    22   10   11 1   
    23   10   13 1   
    24   10   39 1   
    25   11   12 1   
    26   11   16 1   
    27   13   14 1   
    28   13   40 1   
    29   13   41 1   
    30   14   15 1   
    31   14   42 1   
    32   14   43 1   
    33   15   44 1   
    34   15   45 1   
    35   16   17 1   
    36   16   46 1   
    37   17   18 1   
    38   17   47 1   
    39   17   48 1   
    40   18   19 1   
    41   18   26 1   
    42   19   20 1   
    43   19   49 1   
    44   20   50 1   
    45   21   22 1   
    46   21   25 1   
    47   22   23 1   
    48   22   24 1   
    49   24   52 1   
    50   24   53 1   
    51   25   54 1   
    52   26   55 1   
@<TRIPOS>SUBSTRUCTURE
     1 31U         1 TEMP              0 ****  ****    0 ROOT
