@<TRIPOS>MOLECULE
31U
   55    56     1     0     0
SMALL
bcc


@<TRIPOS>ATOM
      1 N5         -3.8960   -2.3180    0.0030 n3        1 31U     -0.888800
      2 C4         -3.9220   -0.8740   -0.0280 c3        1 31U      0.118500
      3 C33        -4.7950   -0.3160   -1.1650 c3        1 31U     -0.071400
      4 C17        -6.2820   -0.4600   -0.8750 c3        1 31U     -0.069700
      5 C12        -7.0690   -0.3580   -2.1670 c3        1 31U     -0.092100
      6 C49        -6.7540    0.5940    0.1050 c3        1 31U     -0.092100
      7 C14        -2.5140   -0.2490   -0.2030 c         1 31U      0.616100
      8 O32        -1.6560   -0.8270   -0.9080 o         1 31U     -0.638100
      9 N1         -2.1960    0.9150    0.4660 n         1 31U     -0.455800
     10 C1         -0.9600    1.6450    0.2040 c3        1 31U      0.031700
     11 C7          0.2280    1.1430    1.0600 c         1 31U      0.649100
     12 O22         0.8410    1.9100    1.8300 o         1 31U     -0.621100
     13 C2         -1.2510    3.1350    0.4880 c3        1 31U     -0.088400
     14 C3         -2.6180    3.1900    1.1590 c3        1 31U     -0.090400
     15 C32        -3.1760    1.7580    1.1270 c3        1 31U      0.084000
     16 N23         0.5670   -0.1860    0.9350 n         1 31U     -0.549900
     17 C24         1.7310   -0.7360    1.5760 c3        1 31U      0.130300
     18 C25         2.9930   -0.6720    0.7600 ca        1 31U     -0.109300
     19 C30         3.5410   -1.8320    0.2070 ca        1 31U     -0.124000
     20 C29         4.7280   -1.7690   -0.5220 ca        1 31U     -0.103000
     21 C28         5.3690   -0.5390   -0.7020 ca        1 31U     -0.138900
     22 C21         6.6450   -0.4640   -1.4830 ce        1 31U      0.649800
     23 N46         6.7310    0.4010   -2.4490 n2        1 31U     -0.825100
     24 N47         7.6120   -1.4230   -1.1070 nh        1 31U     -0.957800
     25 C27         4.8160    0.6260   -0.1610 ca        1 31U     -0.103000
     26 C26         3.6330    0.5570    0.5710 ca        1 31U     -0.124000
     27 HN5        -3.5920   -2.6870   -0.8780 hn        1 31U      0.361800
     28 HN5A       -3.2750   -2.6390    0.7210 hn        1 31U      0.361800
     29 H4         -4.3520   -0.5410    0.9640 h1        1 31U      0.076700
     30 H33        -4.5490    0.7680   -1.3140 hc        1 31U      0.052700
     31 H33A       -4.5440   -0.8450   -2.1230 hc        1 31U      0.052700
     32 H17        -6.4670   -1.4770   -0.4260 hc        1 31U      0.071700
     33 H12        -6.7780   -1.1760   -2.8680 hc        1 31U      0.034033
     34 H12A       -8.1630   -0.4420   -1.9580 hc        1 31U      0.034033
     35 H12B       -6.8790    0.6220   -2.6670 hc        1 31U      0.034033
     36 H49        -6.5820    1.6190   -0.3040 hc        1 31U      0.034033
     37 H49A       -7.8470    0.4720    0.3020 hc        1 31U      0.034033
     38 H49B       -6.2100    0.5050    1.0760 hc        1 31U      0.034033
     39 H1         -0.6600    1.5000   -0.8770 h1        1 31U      0.085700
     40 H2         -0.4600    3.5780    1.1450 hc        1 31U      0.075200
     41 H2A        -1.2570    3.7000   -0.4770 hc        1 31U      0.075200
     42 H3         -2.5290    3.5430    2.2160 hc        1 31U      0.057200
     43 H3A        -3.3030    3.8880    0.6190 hc        1 31U      0.057200
     44 H32        -4.1620    1.7280    0.5830 h1        1 31U      0.050700
     45 H32A       -3.3430    1.3740    2.1710 h1        1 31U      0.050700
     46 HN23        0.1780   -0.7070    0.1780 hn        1 31U      0.336500
     47 H24         1.9040   -0.1760    2.5430 h1        1 31U      0.066700
     48 H24A        1.5010   -1.8130    1.8250 h1        1 31U      0.066700
     49 H30         3.0360   -2.8000    0.3420 ha        1 31U      0.145500
     50 H29         5.1470   -2.6850   -0.9650 ha        1 31U      0.146000
     51 HN46        7.5940    0.4270   -2.9490 hn        1 31U      0.381400
     52 HN47        7.4940   -1.8120   -0.2010 hn        1 31U      0.397300
     53 HN4A        8.5560   -1.2220   -1.3450 hn        1 31U      0.397300
     54 H27         5.3090    1.5980   -0.3220 ha        1 31U      0.146000
     55 H26         3.1890    1.4690    1.0040 ha        1 31U      0.145500
@<TRIPOS>BOND
     1    1    2 1   
     2    1   27 1   
     3    1   28 1   
     4    2    3 1   
     5    2    7 1   
     6    2   29 1   
     7    3    4 1   
     8    3   30 1   
     9    3   31 1   
    10    4    5 1   
    11    4    6 1   
    12    4   32 1   
    13    5   33 1   
    14    5   34 1   
    15    5   35 1   
    16    6   36 1   
    17    6   37 1   
    18    6   38 1   
    19    7    8 2   
    20    7    9 1   
    21    9   10 1   
    22    9   15 1   
    23   10   11 1   
    24   10   13 1   
    25   10   39 1   
    26   11   12 2   
    27   11   16 1   
    28   13   14 1   
    29   13   40 1   
    30   13   41 1   
    31   14   15 1   
    32   14   42 1   
    33   14   43 1   
    34   15   44 1   
    35   15   45 1   
    36   16   17 1   
    37   16   46 1   
    38   17   18 1   
    39   17   47 1   
    40   17   48 1   
    41   18   19 ar  
    42   18   26 ar  
    43   19   20 ar  
    44   19   49 1   
    45   20   21 ar  
    46   20   50 1   
    47   21   22 1   
    48   21   25 ar  
    49   22   23 2   
    50   22   24 1   
    51   23   51 1   
    52   24   52 1   
    53   24   53 1   
    54   25   26 ar  
    55   25   54 1   
    56   26   55 1   
@<TRIPOS>SUBSTRUCTURE
     1 31U         1 TEMP              0 ****  ****    0 ROOT
