@<TRIPOS>MOLECULE
31U
   58    59     1     0     0
SMALL
bcc


@<TRIPOS>ATOM
      1 N5         -0.1310   -1.0140    0.1200 nz        1 31U     -0.837600
      2 C4          1.2490   -0.4330   -0.0250 c3        1 31U      0.062500
      3 C33         2.1620   -1.3700   -0.8300 c3        1 31U     -0.115400
      4 C17         1.9120   -1.2780   -2.3320 c3        1 31U     -0.070700
      5 C12         2.5140   -2.4920   -3.0150 c3        1 31U     -0.106100
      6 C49         2.5010   -0.0090   -2.9110 c3        1 31U     -0.106100
      7 C14         1.8650   -0.2070    1.3730 c         1 31U      0.654100
      8 O32         1.4980   -0.9050    2.3400 o         1 31U     -0.595100
      9 N1          2.8090    0.7810    1.5380 n         1 31U     -0.448800
     10 C1          3.6000    0.8680    2.7520 c3        1 31U      0.059700
     11 C7          2.8190    1.5150    3.9100 c         1 31U      0.523100
     12 O22         1.7520    2.0990    3.8810 o         1 31U     -0.378100
     13 C2          4.8450    1.7320    2.4250 c3        1 31U     -0.094400
     14 C3          4.6610    2.2310    0.9940 c3        1 31U     -0.093400
     15 C32         3.3390    1.6400    0.4830 c3        1 31U      0.073000
     16 N23         3.4840    1.3820    5.2750 ny        1 31U     -0.683800
     17 C24         3.2210    2.5610    6.1640 c3        1 31U      0.156100
     18 C25         3.7270    2.3720    7.5590 ca        1 31U     -0.137300
     19 C30         2.9430    1.6980    8.5040 ca        1 31U     -0.090500
     20 C29         3.3620    1.6120    9.8320 ca        1 31U     -0.081000
     21 C28         4.5700    2.2040   10.2190 ca        1 31U     -0.208900
     22 C21         5.0430    2.0640   11.6200 ce        1 31U      0.562800
     23 N46         5.6680    1.1150   12.1970 n2        1 31U     -0.664100
     24 N47         4.7130    3.2600   12.4700 nz        1 31U     -0.819600
     25 C27         5.3600    2.8740    9.2780 ca        1 31U     -0.081000
     26 C26         4.9380    2.9550    7.9500 ca        1 31U     -0.090500
     27 HN5        -0.1230   -1.7500    0.8430 hn        1 31U      0.478467
     28 HN5A       -0.7990   -0.2880    0.3950 hn        1 31U      0.478467
     29 H4          1.1340    0.5530   -0.5740 hx        1 31U      0.139700
     30 H33         3.2300   -1.0900   -0.6220 hc        1 31U      0.093200
     31 H33A        2.0350   -2.4320   -0.4820 hc        1 31U      0.093200
     32 H17         0.8030   -1.2800   -2.5290 hc        1 31U      0.035700
     33 H12         2.3450   -2.4280   -4.1180 hc        1 31U      0.058533
     34 H12A        2.0430   -3.4330   -2.6410 hc        1 31U      0.058533
     35 H12B        3.6140   -2.5440   -2.8310 hc        1 31U      0.058533
     36 H49         3.6100    0.0110   -2.7730 hc        1 31U      0.058533
     37 H49A        2.2890    0.0410   -4.0080 hc        1 31U      0.058533
     38 H49B        2.0630    0.8990   -2.4300 hc        1 31U      0.058533
     39 H1          3.8850   -0.1760    3.0870 h1        1 31U      0.115700
     40 H2          4.9450    2.5930    3.1300 hc        1 31U      0.081200
     41 H2A         5.7650    1.0990    2.5090 hc        1 31U      0.081200
     42 H3          5.5140    1.9020    0.3470 hc        1 31U      0.101700
     43 H3A         4.6240    3.3500    0.9580 hc        1 31U      0.101700
     44 H32         2.5930    2.4550    0.2670 h1        1 31U      0.083700
     45 H32A        3.5050    1.0440   -0.4590 h1        1 31U      0.083700
     46 HN23        3.1190    0.5330    5.7280 hn        1 31U      0.462300
     47 H24         3.7070    3.4610    5.6840 hx        1 31U      0.129700
     48 H24A        2.1010    2.7330    6.1790 hx        1 31U      0.129700
     49 H30         1.9770    1.2490    8.2160 ha        1 31U      0.167000
     50 H29         2.7350    1.0750   10.5660 ha        1 31U      0.176500
     51 HN46        5.9180    0.2910   11.6890 hn        1 31U      0.499400
     52 HN47        5.1290    4.0950   12.0430 hn        1 31U      0.481133
     53 HN4A        5.0780    3.1560   13.4310 hn        1 31U      0.481133
     54 H27         6.3210    3.3330    9.5700 ha        1 31U      0.176500
     55 H26         5.5620    3.5010    7.2210 ha        1 31U      0.167000
     56 H53        -0.4190   -1.4250   -0.7790 hn        1 31U      0.478467
     57 H232        4.4950    1.2650    5.1490 hn        1 31U      0.462300
     58 H473        3.6930    3.3690   12.5100 hn        1 31U      0.481133
@<TRIPOS>BOND
     1    1    2 1   
     2    1   27 1   
     3    1   28 1   
     4    1   56 1   
     5    2    3 1   
     6    2    7 1   
     7    2   29 1   
     8    3    4 1   
     9    3   30 1   
    10    3   31 1   
    11    4    5 1   
    12    4    6 1   
    13    4   32 1   
    14    5   33 1   
    15    5   34 1   
    16    5   35 1   
    17    6   36 1   
    18    6   37 1   
    19    6   38 1   
    20    7    8 2   
    21    7    9 1   
    22    9   10 1   
    23    9   15 1   
    24   10   11 1   
    25   10   13 1   
    26   10   39 1   
    27   11   12 2   
    28   11   16 1   
    29   13   14 1   
    30   13   40 1   
    31   13   41 1   
    32   14   15 1   
    33   14   42 1   
    34   14   43 1   
    35   15   44 1   
    36   15   45 1   
    37   16   17 1   
    38   16   46 1   
    39   16   57 1   
    40   17   18 1   
    41   17   47 1   
    42   17   48 1   
    43   18   19 ar  
    44   18   26 ar  
    45   19   20 ar  
    46   19   49 1   
    47   20   21 ar  
    48   20   50 1   
    49   21   22 1   
    50   21   25 ar  
    51   22   23 2   
    52   22   24 1   
    53   23   51 1   
    54   24   52 1   
    55   24   53 1   
    56   24   58 1   
    57   25   26 ar  
    58   25   54 1   
    59   26   55 1   
@<TRIPOS>SUBSTRUCTURE
     1 31U         1 TEMP              0 ****  ****    0 ROOT
