@<TRIPOS>MOLECULE
31U
   58    59     1     0     0
SMALL
bcc


@<TRIPOS>ATOM
      1 N5         -0.1180   -1.0210    0.1160 n4        1 31U     -0.837600
      2 C4          1.2600   -0.4380   -0.0270 c3        1 31U      0.062500
      3 C33         2.1760   -1.3730   -0.8290 c3        1 31U     -0.115400
      4 C17         1.9290   -1.2850   -2.3310 c3        1 31U     -0.070700
      5 C12         2.5350   -2.4980   -3.0110 c3        1 31U     -0.106100
      6 C49         2.5160   -0.0150   -2.9110 c3        1 31U     -0.106100
      7 C14         1.8730   -0.2080    1.3710 c         1 31U      0.654100
      8 O32         1.5060   -0.9050    2.3390 o         1 31U     -0.595100
      9 N1          2.8150    0.7830    1.5370 n         1 31U     -0.448800
     10 C1          3.6030    0.8740    2.7520 c3        1 31U      0.059700
     11 C7          2.8170    1.5210    3.9070 c         1 31U      0.523100
     12 O22         1.7500    2.1020    3.8750 o         1 31U     -0.378100
     13 C2          4.8460    1.7410    2.4260 c3        1 31U     -0.094400
     14 C3          4.6650    2.2360    0.9930 c3        1 31U     -0.093400
     15 C32         3.3450    1.6410    0.4810 c3        1 31U      0.073000
     16 N23         3.4800    1.3910    5.2740 n4        1 31U     -0.683800
     17 C24         3.1960    2.5620    6.1680 c3        1 31U      0.156100
     18 C25         3.7060    2.3750    7.5620 ca        1 31U     -0.137300
     19 C30         2.9340    1.6840    8.5040 ca        1 31U     -0.090500
     20 C29         3.3550    1.6000    9.8320 ca        1 31U     -0.081000
     21 C28         4.5530    2.2110   10.2210 ca        1 31U     -0.208900
     22 C21         5.0280    2.0740   11.6220 ce        1 31U      0.562800
     23 N46         5.6680    1.1330   12.1960 n2        1 31U     -0.664100
     24 N47         4.6780    3.2610   12.4760 n4        1 31U     -0.819600
     25 C27         5.3310    2.8980    9.2830 ca        1 31U     -0.081000
     26 C26         4.9070    2.9770    7.9550 ca        1 31U     -0.090500
     27 HN5        -0.1100   -1.7550    0.8400 hn        1 31U      0.478467
     28 HN5A       -0.7900   -0.2960    0.3890 hn        1 31U      0.478467
     29 H4          1.1440    0.5470   -0.5780 hx        1 31U      0.139700
     30 H33         2.0510   -2.4350   -0.4790 hc        1 31U      0.093200
     31 H33A        3.2430   -1.0900   -0.6200 hc        1 31U      0.093200
     32 H17         0.8200   -1.2900   -2.5310 hc        1 31U      0.035700
     33 H12         2.3680   -2.4370   -4.1150 hc        1 31U      0.058533
     34 H12A        3.6350   -2.5470   -2.8260 hc        1 31U      0.058533
     35 H12B        2.0660   -3.4400   -2.6370 hc        1 31U      0.058533
     36 H49         3.6240    0.0080   -2.7720 hc        1 31U      0.058533
     37 H49A        2.3060    0.0320   -4.0100 hc        1 31U      0.058533
     38 H49B        2.0740    0.8930   -2.4340 hc        1 31U      0.058533
     39 H1          3.8900   -0.1680    3.0890 h1        1 31U      0.115700
     40 H2          5.7680    1.1110    2.5140 hc        1 31U      0.081200
     41 H2A         4.9410    2.6040    3.1290 hc        1 31U      0.081200
     42 H3          4.6250    3.3540    0.9550 hc        1 31U      0.101700
     43 H3A         5.5200    1.9060    0.3490 hc        1 31U      0.101700
     44 H32         2.5980    2.4540    0.2610 h1        1 31U      0.083700
     45 H32A        3.5130    1.0440   -0.4600 h1        1 31U      0.083700
     46 HN23        3.1260    0.5350    5.7210 hn        1 31U      0.462300
     47 H24         2.0740    2.7150    6.1840 hx        1 31U      0.130200
     48 H24A        3.6670    3.4720    5.6910 hx        1 31U      0.130200
     49 H30         1.9760    1.2200    8.2140 ha        1 31U      0.167000
     50 H29         2.7370    1.0490   10.5630 ha        1 31U      0.176500
     51 HN46        5.9330    0.3160   11.6840 hn        1 31U      0.499400
     52 HN47        5.0790    4.1050   12.0520 hn        1 31U      0.481133
     53 HN4A        5.0440    3.1600   13.4370 hn        1 31U      0.481133
     54 H27         6.2830    3.3730    9.5760 ha        1 31U      0.176500
     55 H26         5.5210    3.5370    7.2290 ha        1 31U      0.167000
     56 H53        -0.4050   -1.4340   -0.7820 hn        1 31U      0.478467
     57 H232        4.4930    1.2890    5.1500 hn        1 31U      0.462300
     58 H473        3.6560    3.3520   12.5170 hn        1 31U      0.481133
@<TRIPOS>BOND
     1    1    2 1   
     2    1   27 1   
     3    1   28 1   
     4    1   56 1   
     5    2    3 1   
     6    2    7 1   
     7    2   29 1   
     8    3    4 1   
     9    3   30 1   
    10    3   31 1   
    11    4    5 1   
    12    4    6 1   
    13    4   32 1   
    14    5   33 1   
    15    5   34 1   
    16    5   35 1   
    17    6   36 1   
    18    6   37 1   
    19    6   38 1   
    20    7    8 2   
    21    7    9 1   
    22    9   10 1   
    23    9   15 1   
    24   10   11 1   
    25   10   13 1   
    26   10   39 1   
    27   11   12 2   
    28   11   16 1   
    29   13   14 1   
    30   13   40 1   
    31   13   41 1   
    32   14   15 1   
    33   14   42 1   
    34   14   43 1   
    35   15   44 1   
    36   15   45 1   
    37   16   17 1   
    38   16   46 1   
    39   16   57 1   
    40   17   18 1   
    41   17   47 1   
    42   17   48 1   
    43   18   19 ar  
    44   18   26 ar  
    45   19   20 ar  
    46   19   49 1   
    47   20   21 ar  
    48   20   50 1   
    49   21   22 1   
    50   21   25 ar  
    51   22   23 2   
    52   22   24 1   
    53   23   51 1   
    54   24   52 1   
    55   24   53 1   
    56   24   58 1   
    57   25   26 ar  
    58   25   54 1   
    59   26   55 1   
@<TRIPOS>SUBSTRUCTURE
     1 31U         1 TEMP              0 ****  ****    0 ROOT
