@<TRIPOS>MOLECULE
31U
   58    59     1     0     0
SMALL
bcc


@<TRIPOS>ATOM
      1 N5         -0.1290   -1.0200    0.1200 n4        1 31U     -0.837600
      2 C4          1.2500   -0.4380   -0.0230 c3        1 31U      0.062500
      3 C33         2.1650   -1.3730   -0.8280 c3        1 31U     -0.115400
      4 C17         1.9160   -1.2820   -2.3290 c3        1 31U     -0.070700
      5 C12         2.5200   -2.4940   -3.0120 c3        1 31U     -0.106100
      6 C49         2.5030   -0.0110   -2.9080 c3        1 31U     -0.106100
      7 C14         1.8640   -0.2110    1.3750 c         1 31U      0.654100
      8 O32         1.4980   -0.9100    2.3410 o         1 31U     -0.595100
      9 N1          2.8070    0.7790    1.5420 n         1 31U     -0.448800
     10 C1          3.5970    0.8670    2.7550 c3        1 31U      0.059700
     11 C7          2.8140    1.5130    3.9130 c         1 31U      0.523100
     12 O22         1.7470    2.0950    3.8830 o         1 31U     -0.378100
     13 C2          4.8410    1.7320    2.4300 c3        1 31U     -0.094400
     14 C3          4.6580    2.2320    0.9990 c3        1 31U     -0.093400
     15 C32         3.3370    1.6380    0.4870 c3        1 31U      0.073000
     16 N23         3.4790    1.3810    5.2790 n4        1 31U     -0.683800
     17 C24         3.2240    2.5680    6.1620 c3        1 31U      0.156100
     18 C25         3.7240    2.3800    7.5590 ca        1 31U     -0.137300
     19 C30         2.9310    1.7180    8.5050 ca        1 31U     -0.090500
     20 C29         3.3460    1.6340    9.8350 ca        1 31U     -0.081000
     21 C28         4.5590    2.2160   10.2220 ca        1 31U     -0.208900
     22 C21         5.0270    2.0780   11.6250 ce        1 31U      0.562800
     23 N46         5.6410    1.1250   12.2080 n2        1 31U     -0.664100
     24 N47         4.7050    3.2810   12.4690 n4        1 31U     -0.819600
     25 C27         5.3580    2.8730    9.2800 ca        1 31U     -0.081000
     26 C26         4.9400    2.9520    7.9500 ca        1 31U     -0.090500
     27 HN5        -0.7990   -0.2960    0.3960 hn        1 31U      0.478467
     28 HN5A       -0.1200   -1.7570    0.8430 hn        1 31U      0.478467
     29 H4          1.1340    0.5480   -0.5720 hx        1 31U      0.139700
     30 H33         2.0400   -2.4350   -0.4800 hc        1 31U      0.093200
     31 H33A        3.2320   -1.0910   -0.6190 hc        1 31U      0.093200
     32 H17         0.8070   -1.2850   -2.5280 hc        1 31U      0.035700
     33 H12         2.0510   -3.4360   -2.6390 hc        1 31U      0.058533
     34 H12A        2.3520   -2.4300   -4.1160 hc        1 31U      0.058533
     35 H12B        3.6200   -2.5440   -2.8280 hc        1 31U      0.058533
     36 H49         2.2920    0.0380   -4.0060 hc        1 31U      0.058533
     37 H49A        3.6120    0.0110   -2.7700 hc        1 31U      0.058533
     38 H49B        2.0640    0.8960   -2.4280 hc        1 31U      0.058533
     39 H1          3.8830   -0.1770    3.0910 h1        1 31U      0.115700
     40 H2          4.9400    2.5930    3.1350 hc        1 31U      0.081200
     41 H2A         5.7620    1.0990    2.5140 hc        1 31U      0.081200
     42 H3          5.5110    1.9040    0.3520 hc        1 31U      0.101700
     43 H3A         4.6180    3.3500    0.9640 hc        1 31U      0.101700
     44 H32         2.5900    2.4530    0.2700 h1        1 31U      0.083700
     45 H32A        3.5040    1.0430   -0.4560 h1        1 31U      0.083700
     46 HN23        3.1070    0.5380    5.7360 hn        1 31U      0.462300
     47 H24         2.1060    2.7500    6.1730 hx        1 31U      0.129700
     48 H24A        3.7200    3.4600    5.6780 hx        1 31U      0.129700
     49 H30         1.9620    1.2780    8.2160 ha        1 31U      0.167000
     50 H29         2.7120    1.1070   10.5690 ha        1 31U      0.176500
     51 HN46        5.8860    0.2970   11.7040 hn        1 31U      0.499400
     52 HN47        5.1300    4.1100   12.0390 hn        1 31U      0.481133
     53 HN4A        3.6870    3.3990   12.5050 hn        1 31U      0.481133
     54 H27         6.3230    3.3240    9.5720 ha        1 31U      0.176500
     55 H26         5.5720    3.4890    7.2210 ha        1 31U      0.167000
     56 H53        -0.4160   -1.4320   -0.7780 hn        1 31U      0.478467
     57 H232        4.4890    1.2560    5.1530 hn        1 31U      0.462300
     58 H473        5.0660    3.1770   13.4320 hn        1 31U      0.481133
@<TRIPOS>BOND
     1    1    2 1   
     2    1   27 1   
     3    1   28 1   
     4    1   56 1   
     5    2    3 1   
     6    2    7 1   
     7    2   29 1   
     8    3    4 1   
     9    3   30 1   
    10    3   31 1   
    11    4    5 1   
    12    4    6 1   
    13    4   32 1   
    14    5   33 1   
    15    5   34 1   
    16    5   35 1   
    17    6   36 1   
    18    6   37 1   
    19    6   38 1   
    20    7    8 2   
    21    7    9 1   
    22    9   10 1   
    23    9   15 1   
    24   10   11 1   
    25   10   13 1   
    26   10   39 1   
    27   11   12 2   
    28   11   16 1   
    29   13   14 1   
    30   13   40 1   
    31   13   41 1   
    32   14   15 1   
    33   14   42 1   
    34   14   43 1   
    35   15   44 1   
    36   15   45 1   
    37   16   17 1   
    38   16   46 1   
    39   16   57 1   
    40   17   18 1   
    41   17   47 1   
    42   17   48 1   
    43   18   19 ar  
    44   18   26 ar  
    45   19   20 ar  
    46   19   49 1   
    47   20   21 ar  
    48   20   50 1   
    49   21   22 1   
    50   21   25 ar  
    51   22   23 2   
    52   22   24 1   
    53   23   51 1   
    54   24   52 1   
    55   24   53 1   
    56   24   58 1   
    57   25   26 ar  
    58   25   54 1   
    59   26   55 1   
@<TRIPOS>SUBSTRUCTURE
     1 31U         1 TEMP              0 ****  ****    0 ROOT
