@<TRIPOS>MOLECULE
31V
   63    66     1     0     0
SMALL
bcc


@<TRIPOS>ATOM
      1 C2          0.0500    0.9020    0.6300 ca        1 31V     -0.116000
      2 C3          1.3130    1.4030    0.9260 ca        1 31V     -0.119000
      3 N4         11.1810    2.3280    0.3760 na        1 31V     -0.081000
      4 C5          1.1330    0.5720    3.1920 ca        1 31V     -0.157000
      5 N6         -1.9820   -0.3000    1.3100 nh        1 31V     -0.196000
      6 C7          4.0520    2.1250    1.2630 c1        1 31V      0.016000
      7 C9          7.5290    2.2090    1.2200 c2        1 31V      0.299000
      8 C10         9.8830    2.7620    0.8310 c2        1 31V      0.055000
      9 C11        11.5590    4.0060    1.7180 c2        1 31V     -0.074000
     10 C12        10.1190    3.8150    1.7300 c2        1 31V     -0.212000
     11 C13        12.2880    5.0000    2.5130 cx        1 31V     -0.056000
     12 C15        12.3280    4.8980    4.0050 cu        1 31V     -0.173500
     13 C18        12.2740    0.5990   -4.1060 c2        1 31V     -0.139000
     14 C20        12.2220    2.9180   -2.7730 cx        1 31V     -0.150000
     15 C21        12.4390    1.8310   -1.7340 cx        1 31V     -0.083000
     16 C22        -5.3530   -1.8600    1.2280 c1        1 31V     -0.192000
     17 O           7.4570    2.8690    2.2650 o         1 31V     -0.308000
     18 N3          8.6930    2.1460    0.4550 n         1 31V     -0.319000
     19 C14        11.5630    5.8480    3.5060 cu        1 31V     -0.173500
     20 N5         12.1510    3.1310    0.8610 n2        1 31V     -0.060000
     21 C16        11.3480    1.5080   -0.7690 c2        1 31V     -0.213000
     22 C19        12.2890    1.5090   -3.1650 cu        1 31V     -0.190000
     23 C17        10.6340    0.4000   -1.0350 c1        1 31V      0.193000
     24 N           5.1800    1.4110    1.4780 n3        1 31V     -0.231000
     25 N1          5.1660    0.6910    2.7150 n2        1 31V      0.053000
     26 N2          4.1130    0.8660    3.3020 n2        1 31V     -0.078000
     27 C6          3.1990    1.8100    2.5160 c3        1 31V     -0.150000
     28 C4          1.8610    1.2400    2.2010 ca        1 31V     -0.067000
     29 C          -0.1310    0.0590    2.9010 ca        1 31V      0.022000
     30 O1         -0.9170   -0.5970    3.8390 os        1 31V     -0.231000
     31 C26        -0.2560   -1.0110    5.0290 c3        1 31V     -0.071000
     32 C1         -0.7030    0.2150    1.6030 ca        1 31V      0.072000
     33 C24        -2.5150   -0.1570    0.0930 c1        1 31V     -0.075000
     34 C23        -3.7840   -0.6300   -0.3040 c2        1 31V     -0.299000
     35 C25        -4.1920   -0.3690   -1.7180 c3        1 31V     -0.112000
     36 N7         -4.6440   -1.2920    0.4930 n2        1 31V      0.128000
     37 H1          1.8810    1.9390    0.1480 ha        1 31V      0.158000
     38 H2         -0.3810    1.0350   -0.3780 ha        1 31V      0.179000
     39 H3          1.5620    0.4540    4.1980 ha        1 31V      0.150000
     40 H4          3.0780    2.7470    3.1340 h1        1 31V      0.172000
     41 H5          9.3830    4.3470    2.3280 ha        1 31V      0.195000
     42 H6          7.6410    4.6380    3.9130 ha        1 31V      0.001500
     43 H7         13.1680    5.4160    1.9760 hc        1 31V      0.123000
     44 H8         12.7470    4.3470    4.8200 ha        1 31V      0.193000
     45 H10        13.4420    1.7380   -1.2640 hc        1 31V      0.161000
     46 H11        13.0680    3.5920   -3.0080 hc        1 31V      0.126500
     47 H12        -5.9990   -2.3760    1.8990 ha        1 31V      0.296000
     48 H13         8.6850    1.6240   -0.3940 hn        1 31V      0.241000
     49 H14         7.4340    5.0500    3.4170 ha        1 31V      0.001500
     50 H15        10.8820    6.6670    3.6060 ha        1 31V      0.193000
     51 H16        11.2520    3.4460   -2.8110 hc        1 31V      0.126500
     52 H17        12.3800   -0.4740   -3.8910 ha        1 31V      0.127500
     53 H20         0.0080   -0.1230    5.6540 h1        1 31V      0.084667
     54 H21         0.6560   -1.6110    4.7940 h1        1 31V      0.084667
     55 H22        -1.0220   -1.6410    5.5470 h1        1 31V      0.084667
     56 H23        -2.4220   -0.7620    2.0830 hn        1 31V      0.181000
     57 H24        -3.3640    0.1870   -2.2220 hc        1 31V      0.075667
     58 H25        -5.1210    0.2510   -1.7670 hc        1 31V      0.075667
     59 H26        -4.3730   -1.3230   -2.2730 hc        1 31V      0.075667
     60 C8          6.3460    1.4190    0.6310 c3        1 31V     -0.022000
     61 H9         12.1500    0.8600   -5.1670 ha        1 31V      0.127500
     62 H18         6.0500    1.8950   -0.3490 h1        1 31V      0.137000
     63 H19         6.6730    0.3540    0.4480 h1        1 31V      0.137000
@<TRIPOS>BOND
     1    1    2 1   
     2    1   32 1   
     3    1   38 1   
     4    2   28 1   
     5    2   37 1   
     6    3    8 1   
     7    3   20 1   
     8    3   21 1   
     9    4   28 1   
    10    4   29 1   
    11    4   39 1   
    12    5   32 1   
    13    5   33 1   
    14    5   56 1   
    15    6   24 1   
    16    6   27 1   
    17    7   17 1   
    18    7   18 1   
    19    7   60 1   
    20    8   10 1   
    21    8   18 1   
    22    9   10 1   
    23    9   11 1   
    24    9   20 1   
    25   10   41 1   
    26   11   12 1   
    27   11   19 1   
    28   11   43 1   
    29   12   19 1   
    30   12   44 1   
    31   13   22 1   
    32   13   52 1   
    33   13   61 1   
    34   14   15 1   
    35   14   22 1   
    36   14   46 1   
    37   14   51 1   
    38   15   21 1   
    39   15   22 1   
    40   15   45 1   
    41   16   36 1   
    42   16   47 1   
    43   18   48 1   
    44   19   50 1   
    45   21   23 1   
    46   24   25 1   
    47   24   60 1   
    48   25   26 1   
    49   26   27 1   
    50   27   28 1   
    51   27   40 1   
    52   29   30 1   
    53   29   32 1   
    54   30   31 1   
    55   31   53 1   
    56   31   54 1   
    57   31   55 1   
    58   33   34 1   
    59   34   35 1   
    60   34   36 1   
    61   35   57 1   
    62   35   58 1   
    63   35   59 1   
    64   42   49 1   
    65   60   62 1   
    66   60   63 1   
@<TRIPOS>SUBSTRUCTURE
     1 31V         1 TEMP              0 ****  ****    0 ROOT
