@<TRIPOS>MOLECULE
31V
   63    66     1     0     0
SMALL
bcc


@<TRIPOS>ATOM
      1 C2         -0.1430    0.6770    0.5150 ca        1 31V     -0.129000
      2 C3          1.1070    1.2310    0.7550 ca        1 31V     -0.102000
      3 N4         10.9640    2.2070    0.3050 na        1 31V     -0.081000
      4 C5          0.8370    0.8800    3.1320 ca        1 31V     -0.114000
      5 N6         -2.2090   -0.3620    1.3590 nh        1 31V     -0.201000
      6 C7          3.8260    2.0460    1.0430 c1        1 31V      0.014000
      7 C9          7.2970    2.1620    1.0970 c2        1 31V      0.300000
      8 C10         9.6510    2.6850    0.6620 c2        1 31V      0.058000
      9 C11        11.2880    4.0890    1.3580 c2        1 31V     -0.081000
     10 C12         9.8530    3.8770    1.3790 c2        1 31V     -0.215000
     11 C13        11.9680    5.2400    2.0020 c3        1 31V     -0.066000
     12 C15        12.9760    4.8140    3.0080 c2        1 31V     -0.156000
     13 C18        12.1380   -0.1880   -3.8380 c2        1 31V     -0.138000
     14 C20        12.0020    2.3130   -2.8990 cx        1 31V     -0.150000
     15 C21        12.2490    1.4170   -1.6970 cx        1 31V     -0.083000
     16 C22        -5.6390   -1.7840    1.4980 c1        1 31V     -0.187000
     17 O           7.1920    2.9900    2.0110 o         1 31V     -0.306000
     18 N3          8.4780    1.9940    0.3740 n         1 31V     -0.319000
     19 C14        13.0310    5.3030    4.2440 c2        1 31V     -0.221000
     20 N5         11.9110    3.1000    0.6660 n2        1 31V     -0.066000
     21 C16        11.1640    1.2190   -0.6920 c2        1 31V     -0.214000
     22 C19        12.1170    0.8630   -3.0560 cu        1 31V     -0.190000
     23 C17        10.4890    0.0590   -0.7740 c1        1 31V      0.196000
     24 N           4.9470    1.3950    1.4270 n3        1 31V     -0.231000
     25 N1          4.8910    0.9210    2.7770 n2        1 31V      0.053000
     26 N2          3.8180    1.1950    3.2840 n2        1 31V     -0.076000
     27 C6          2.9300    1.9670    2.3030 c3        1 31V     -0.149000
     28 C4          1.6050    1.3360    2.0600 ca        1 31V     -0.084000
     29 C          -0.4160    0.3090    2.8980 ca        1 31V     -0.011000
     30 O1         -1.2260   -0.0740    3.9640 os        1 31V     -0.234000
     31 C26        -0.6710   -1.1180    4.7620 c3        1 31V     -0.074000
     32 C1         -0.9360    0.1970    1.5810 ca        1 31V      0.087000
     33 C24        -2.6850   -0.5150    0.1180 c1        1 31V     -0.073000
     34 C23        -3.9510   -1.0450   -0.2110 c2        1 31V     -0.299000
     35 C25        -4.2820   -1.1540   -1.6640 c3        1 31V     -0.112000
     36 N7         -4.8730   -1.4520    0.6820 n2        1 31V      0.127000
     37 H1          1.7100    1.6000   -0.0910 ha        1 31V      0.158000
     38 H2         -0.5340    0.5990   -0.5150 ha        1 31V      0.179000
     39 H3          1.2050    0.9670    4.1670 ha        1 31V      0.152000
     40 H4          2.7880    3.0030    2.7280 h1        1 31V      0.173000
     41 H5          9.0980    4.4840    1.8690 ha        1 31V      0.193000
     42 H6         11.1840    5.8940    2.4730 hc        1 31V      0.102000
     43 H7         12.4870    5.8530    1.2110 hc        1 31V      0.102000
     44 H8         13.6990    4.0600    2.6550 ha        1 31V      0.133000
     45 H10        13.2520    1.4360   -1.2190 hc        1 31V      0.161000
     46 H11        12.8250    2.9690   -3.2400 hc        1 31V      0.126500
     47 H12        -6.3410   -2.0790    2.2430 ha        1 31V      0.297000
     48 H13         8.4980    1.3280   -0.3680 hn        1 31V      0.241000
     49 H14        12.3190    6.0470    4.6250 ha        1 31V      0.111500
     50 H15        13.7980    4.9860    4.9630 ha        1 31V      0.111500
     51 H16        11.0140    2.7950   -3.0220 hc        1 31V      0.126500
     52 H17        12.2790   -1.2080   -3.4510 ha        1 31V      0.128000
     53 H20         0.3080   -0.8060    5.1980 h1        1 31V      0.081000
     54 H21        -1.4310   -1.2700    5.5680 h1        1 31V      0.081000
     55 H22        -0.5450   -2.0470    4.1540 h1        1 31V      0.081000
     56 H23        -2.6950   -0.6060    2.2010 hn        1 31V      0.181000
     57 H24        -3.4120   -0.7660   -2.2500 hc        1 31V      0.076333
     58 H25        -5.1860   -0.5500   -1.9240 hc        1 31V      0.076333
     59 H26        -4.4670   -2.2160   -1.9610 hc        1 31V      0.076333
     60 C8          6.1430    1.2550    0.6340 c3        1 31V     -0.021000
     61 H9         12.0100   -0.1070   -4.9270 ha        1 31V      0.128000
     62 H18         6.4870    0.1810    0.6750 h1        1 31V      0.137000
     63 H19         5.8770    1.5240   -0.4290 h1        1 31V      0.137000
@<TRIPOS>BOND
     1    1    2 1   
     2    1   32 1   
     3    1   38 1   
     4    2   28 1   
     5    2   37 1   
     6    3    8 1   
     7    3   20 1   
     8    3   21 1   
     9    4   28 1   
    10    4   29 1   
    11    4   39 1   
    12    5   32 1   
    13    5   33 1   
    14    5   56 1   
    15    6   24 1   
    16    6   27 1   
    17    7   17 1   
    18    7   18 1   
    19    7   60 1   
    20    8   10 1   
    21    8   18 1   
    22    9   10 1   
    23    9   11 1   
    24    9   20 1   
    25   10   41 1   
    26   11   12 1   
    27   11   42 1   
    28   11   43 1   
    29   12   19 1   
    30   12   44 1   
    31   13   22 1   
    32   13   52 1   
    33   13   61 1   
    34   14   15 1   
    35   14   22 1   
    36   14   46 1   
    37   14   51 1   
    38   15   21 1   
    39   15   22 1   
    40   15   45 1   
    41   16   36 1   
    42   16   47 1   
    43   18   48 1   
    44   19   49 1   
    45   19   50 1   
    46   21   23 1   
    47   24   25 1   
    48   24   60 1   
    49   25   26 1   
    50   26   27 1   
    51   27   28 1   
    52   27   40 1   
    53   29   30 1   
    54   29   32 1   
    55   30   31 1   
    56   31   53 1   
    57   31   54 1   
    58   31   55 1   
    59   33   34 1   
    60   34   35 1   
    61   34   36 1   
    62   35   57 1   
    63   35   58 1   
    64   35   59 1   
    65   60   62 1   
    66   60   63 1   
@<TRIPOS>SUBSTRUCTURE
     1 31V         1 TEMP              0 ****  ****    0 ROOT
