@<TRIPOS>MOLECULE
31W
   49    52     1     0     0
SMALL
bcc


@<TRIPOS>ATOM
      1 C2          0.4100    0.3720    0.4430 cx        1 31W     -0.102400
      2 C3          1.8550    0.5310    0.0850 cx        1 31W     -0.102400
      3 C5          0.6280   -2.9580    0.6510 ca        1 31W     -0.177300
      4 C7         -1.2790   -4.4190    0.9850 ca        1 31W     -0.098500
      5 C9         -3.8660   -6.1720    2.8120 cc        1 31W      0.333200
      6 C10        -2.8730   -6.9680    3.3760 cd        1 31W     -0.239400
      7 C11        -1.6700   -4.2020   -0.3460 ca        1 31W     -0.053000
      8 C12        -0.9010   -3.3850   -1.1740 ca        1 31W     -0.124000
      9 C13         0.2460   -2.7650   -0.6820 ca        1 31W     -0.104000
     10 C15        -1.0410   -1.4920    5.5610 ca        1 31W     -0.097500
     11 C18        -4.1910   -2.1600    8.4100 c3        1 31W      0.828700
     12 C20        -2.7570   -1.6110    3.8290 ca        1 31W     -0.097500
     13 O1          1.4620   -2.0370    4.2140 o         1 31W     -0.515100
     14 C           0.8520   -1.5200    3.2690 c         1 31W      0.646100
     15 N2         -0.4560   -1.1410    3.1830 ns        1 31W     -0.393100
     16 C14        -1.4050   -1.4310    4.2040 ca        1 31W     -0.024400
     17 C19        -3.7240   -1.8340    4.7970 ca        1 31W     -0.135500
     18 C17        -3.3440   -1.8890    6.1520 ca        1 31W      0.149100
     19 O          -4.3980   -2.1310    7.0170 os        1 31W     -0.362900
     20 F2         -5.4230   -2.3780    8.9210 f         1 31W     -0.202300
     21 F1         -3.3590   -3.1690    8.7670 f         1 31W     -0.202300
     22 F          -3.6990   -0.9850    8.8710 f         1 31W     -0.202300
     23 C16        -2.0110   -1.7220    6.5340 ca        1 31W     -0.135500
     24 N           1.7840   -1.1930    2.0770 nx        1 31W     -0.550200
     25 C1          1.4730    0.1170    1.4910 cx        1 31W     -0.006500
     26 C4          1.9020   -2.3730    1.1540 c3        1 31W      0.173100
     27 C6         -0.1250   -3.7990    1.4780 ca        1 31W     -0.110000
     28 C8         -2.0750   -5.2820    1.8450 cd        1 31W      0.371900
     29 S          -1.3740   -6.5160    2.8130 ss        1 31W     -0.022300
     30 N1         -3.4140   -5.2080    1.9350 nc        1 31W     -0.615000
     31 H1         -0.2250    1.2700    0.5750 hc        1 31W      0.109450
     32 H2         -0.1570   -0.4730    0.0070 hc        1 31W      0.109450
     33 H3          2.2830    1.5460   -0.0410 hc        1 31W      0.109450
     34 H4          2.3170   -0.1920   -0.6120 hc        1 31W      0.109450
     35 H5         -4.9440   -6.2510    3.0010 h4        1 31W      0.060100
     36 H6         -3.0480   -7.7780    4.0830 h4        1 31W      0.198000
     37 H7         -2.5830   -4.6850   -0.7340 ha        1 31W      0.176000
     38 H8         -1.1980   -3.2360   -2.2250 ha        1 31W      0.163000
     39 H9          0.8580   -2.1380   -1.3510 ha        1 31W      0.141000
     40 H10         0.0090   -1.3690    5.8770 ha        1 31W      0.160000
     41 H11        -3.0650   -1.5780    2.7710 ha        1 31W      0.160000
     42 H12        -0.8320   -0.8520    2.3020 hn        1 31W      0.352500
     43 H13        -4.7810   -1.9740    4.5200 ha        1 31W      0.175500
     44 H14        -1.7160   -1.7680    7.5950 ha        1 31W      0.175500
     45 H15         1.5820    0.8900    2.2950 hx        1 31W      0.138700
     46 H16         2.5540   -2.0550    0.2890 hx        1 31W      0.109200
     47 H17         2.4540   -3.1640    1.7500 hx        1 31W      0.109200
     48 H18         0.1940   -3.9850    2.5180 ha        1 31W      0.148000
     49 HN1         2.7220   -1.0920    2.5080 hn        1 31W      0.469800
@<TRIPOS>BOND
     1    1    2 1   
     2    1   25 1   
     3    1   31 1   
     4    1   32 1   
     5    2   25 1   
     6    2   33 1   
     7    2   34 1   
     8    3    9 ar  
     9    3   26 1   
    10    3   27 ar  
    11    4    7 ar  
    12    4   27 ar  
    13    4   28 1   
    14    5    6 2   
    15    5   30 1   
    16    5   35 1   
    17    6   29 1   
    18    6   36 1   
    19    7    8 ar  
    20    7   37 1   
    21    8    9 ar  
    22    8   38 1   
    23    9   39 1   
    24   10   16 ar  
    25   10   23 ar  
    26   10   40 1   
    27   11   19 1   
    28   11   20 1   
    29   11   21 1   
    30   11   22 1   
    31   12   16 ar  
    32   12   17 ar  
    33   12   41 1   
    34   13   14 2   
    35   14   15 1   
    36   14   24 1   
    37   15   16 1   
    38   15   42 1   
    39   17   18 ar  
    40   17   43 1   
    41   18   19 1   
    42   18   23 ar  
    43   23   44 1   
    44   24   25 1   
    45   24   26 1   
    46   24   49 1   
    47   25   45 1   
    48   26   46 1   
    49   26   47 1   
    50   27   48 1   
    51   28   29 1   
    52   28   30 2   
@<TRIPOS>SUBSTRUCTURE
     1 31W         1 TEMP              0 ****  ****    0 ROOT
