@<TRIPOS>MOLECULE
31W
   49    52     1     0     0
SMALL
bcc


@<TRIPOS>ATOM
      1 C2          0.4410    0.3540    0.4410 cx        1 31W     -0.102400
      2 C3          1.8890    0.5090    0.0950 cx        1 31W     -0.102400
      3 C5          0.6480   -2.9740    0.6680 ca        1 31W     -0.177300
      4 C7         -1.2660   -4.4290    0.9930 ca        1 31W     -0.099500
      5 C9         -3.8740   -6.1640    2.8070 cc        1 31W      0.333200
      6 C10        -2.8880   -6.9600    3.3840 cd        1 31W     -0.239400
      7 C11        -1.6440   -4.2180   -0.3420 ca        1 31W     -0.053000
      8 C12        -0.8650   -3.4080   -1.1680 ca        1 31W     -0.124000
      9 C13         0.2790   -2.7880   -0.6690 ca        1 31W     -0.104000
     10 C15        -1.0600   -1.4810    5.5560 ca        1 31W     -0.097500
     11 C18        -4.2370   -2.1320    8.3780 c3        1 31W      0.828700
     12 C20        -2.7610   -1.6020    3.8090 ca        1 31W     -0.097500
     13 O1          1.4530   -2.0390    4.2330 o         1 31W     -0.515100
     14 C           0.8530   -1.5230    3.2800 c         1 31W      0.646100
     15 N2         -0.4530   -1.1410    3.1810 n         1 31W     -0.393100
     16 C14        -1.4120   -1.4240    4.1950 ca        1 31W     -0.024400
     17 C19        -3.7370   -1.8180    4.7690 ca        1 31W     -0.135500
     18 C17        -3.3700   -1.8690    6.1280 ca        1 31W      0.149100
     19 O          -4.4330   -2.1040    6.9840 os        1 31W     -0.362900
     20 F2         -5.4740   -2.3450    8.8800 f         1 31W     -0.202300
     21 F1         -3.4110   -3.1420    8.7450 f         1 31W     -0.202300
     22 F          -3.7450   -0.9580    8.8420 f         1 31W     -0.202300
     23 C16        -2.0400   -1.7040    6.5210 ca        1 31W     -0.135500
     24 N           1.7960   -1.2050    2.0950 n4        1 31W     -0.550200
     25 C1          1.4930    0.1020    1.5000 cx        1 31W     -0.006500
     26 C4          1.9200   -2.3900    1.1790 c3        1 31W      0.173100
     27 C6         -0.1140   -3.8090    1.4930 ca        1 31W     -0.110000
     28 C8         -2.0710   -5.2850    1.8510 cd        1 31W      0.371900
     29 S          -1.3830   -6.5160    2.8310 ss        1 31W     -0.022300
     30 N1         -3.4110   -5.2060    1.9290 nc        1 31W     -0.616000
     31 H1         -0.1930    1.2550    0.5630 hc        1 31W      0.109450
     32 H2         -0.1240   -0.4920    0.0050 hc        1 31W      0.109450
     33 H3          2.3560   -0.2200   -0.5940 hc        1 31W      0.109450
     34 H4          2.3210    1.5210   -0.0330 hc        1 31W      0.109450
     35 H5         -4.9540   -6.2390    2.9880 h4        1 31W      0.060100
     36 H6         -3.0710   -7.7660    4.0940 h4        1 31W      0.198000
     37 H7         -2.5550   -4.7010   -0.7360 ha        1 31W      0.176000
     38 H8         -1.1530   -3.2630   -2.2220 ha        1 31W      0.163000
     39 H9          0.8980   -2.1660   -1.3360 ha        1 31W      0.141000
     40 H10        -0.0130   -1.3600    5.8800 ha        1 31W      0.160000
     41 H11        -3.0590   -1.5720    2.7480 ha        1 31W      0.160000
     42 H12        -0.8210   -0.8540    2.2960 hn        1 31W      0.352500
     43 H13        -4.7920   -1.9560    4.4830 ha        1 31W      0.175500
     44 H14        -1.7550   -1.7470    7.5850 ha        1 31W      0.175500
     45 H15         1.5980    0.8790    2.3000 hx        1 31W      0.138700
     46 H16         2.5800   -2.0780    0.3190 hx        1 31W      0.109200
     47 H17         2.4650   -3.1790    1.7840 hx        1 31W      0.109200
     48 H18         0.1950   -3.9900    2.5370 ha        1 31W      0.148000
     49 HN1         2.7300   -1.1040    2.5340 hn        1 31W      0.469800
@<TRIPOS>BOND
     1    1    2 1   
     2    1   25 1   
     3    1   31 1   
     4    1   32 1   
     5    2   25 1   
     6    2   33 1   
     7    2   34 1   
     8    3    9 ar  
     9    3   26 1   
    10    3   27 ar  
    11    4    7 ar  
    12    4   27 ar  
    13    4   28 1   
    14    5    6 2   
    15    5   30 1   
    16    5   35 1   
    17    6   29 1   
    18    6   36 1   
    19    7    8 ar  
    20    7   37 1   
    21    8    9 ar  
    22    8   38 1   
    23    9   39 1   
    24   10   16 ar  
    25   10   23 ar  
    26   10   40 1   
    27   11   19 1   
    28   11   20 1   
    29   11   21 1   
    30   11   22 1   
    31   12   16 ar  
    32   12   17 ar  
    33   12   41 1   
    34   13   14 2   
    35   14   15 1   
    36   14   24 1   
    37   15   16 1   
    38   15   42 1   
    39   17   18 ar  
    40   17   43 1   
    41   18   19 1   
    42   18   23 ar  
    43   23   44 1   
    44   24   25 1   
    45   24   26 1   
    46   24   49 1   
    47   25   45 1   
    48   26   46 1   
    49   26   47 1   
    50   27   48 1   
    51   28   29 1   
    52   28   30 2   
@<TRIPOS>SUBSTRUCTURE
     1 31W         1 TEMP              0 ****  ****    0 ROOT
