@<TRIPOS>MOLECULE
31X
   51    51     1     0     0
SMALL
bcc


@<TRIPOS>ATOM
      1 C2          1.0260   -1.0930    0.3000 c2        1 31X      0.052000
      2 C3          0.0360   -1.1800   -0.7420 c2        1 31X     -0.388000
      3 C5         -3.8270    1.1870   -1.8360 c1        1 31X     -0.228750
      4 C7         -4.4620   -1.1000   -4.5900 c1        1 31X     -0.228750
      5 C9          3.4390    2.6970    2.5850 c2        1 31X     -0.115000
      6 C10         2.4620    2.1810    3.5560 c2        1 31X      0.362000
      7 C11         3.6930    4.0430    2.2910 c2        1 31X     -0.090000
      8 C12         4.7280    4.0640    1.2910 c2        1 31X     -0.279000
      9 C13         5.4210    5.0750    0.5870 c2        1 31X      0.206000
     10 C15         5.8530    7.3940    1.4250 c2        1 31X     -0.034000
     11 C18         9.3220    8.0260    5.8830 c2        1 31X     -0.563000
     12 C20         7.2020    7.0780    1.8590 c2        1 31X     -0.417000
     13 C21         4.1250    9.1210    1.2620 c2        1 31X     -0.231000
     14 C22         3.2470    8.2400    0.5760 c1        1 31X     -0.086000
     15 O2          2.2560    0.8550    3.7940 os        1 31X     -0.143000
     16 O1          1.7630    2.9240    4.2610 o         1 31X     -0.365000
     17 C26         5.0640    2.6760    1.0240 c2        1 31X      0.015000
     18 N           4.2860    1.8830    1.8030 na        1 31X     -0.102000
     19 C1          2.3690   -0.7250    1.9790 c2        1 31X      0.033000
     20 N2          1.1830   -0.2430    1.3090 n2        1 31X     -0.179000
     21 C8         -4.5490   -1.9210   -5.4540 c1        1 31X     -0.228750
     22 C6         -4.8430    1.6310   -2.2860 c1        1 31X     -0.228750
     23 C4         -1.0080   -0.3980   -0.9230 c1        1 31X      0.209000
     24 O           2.0460   -2.0770    0.2970 os        1 31X     -0.123000
     25 N1          2.8560   -1.8450    1.3280 n2        1 31X     -0.218000
     26 C25         6.1110    2.3420    0.0370 c3        1 31X     -0.208000
     27 C24         6.7590    3.5430   -0.5750 c1        1 31X     -0.086000
     28 N3          6.4020    4.7950   -0.3080 n2        1 31X     -0.271000
     29 C14         5.0370    6.4820    0.8220 c2        1 31X     -0.022000
     30 C23         3.6810    6.8720    0.3510 c3        1 31X     -0.203000
     31 C16         5.3720    8.7390    1.6540 c2        1 31X     -0.018000
     32 C17        10.1620    8.9930    6.1000 c1        1 31X      0.130000
     33 C19         7.8380    7.4480    2.9430 c1        1 31X      0.149000
     34 H1          0.2000   -2.0180   -1.4570 ha        1 31X      0.209000
     35 H2         -5.7420    2.0300   -2.6800 ha        1 31X      0.226750
     36 H3          3.1990    4.8980    2.7460 ha        1 31X      0.167000
     37 H4          8.8690    7.8470    4.8800 ha        1 31X      0.211500
     38 H5          7.7780    6.4210    1.1580 ha        1 31X      0.236000
     39 H6          3.6080    6.6810   -0.7640 hc        1 31X      0.181000
     40 H7          3.7650   10.1440    1.4580 ha        1 31X      0.143000
     41 H9          4.2220    0.8660    1.8800 hn        1 31X      0.323000
     42 H10         3.7410   -0.5780    3.6790 h4        1 31X      0.137000
     43 H11        -4.6230   -2.6500   -6.2200 ha        1 31X      0.226750
     44 H12        -4.3820   -0.3680   -3.8180 ha        1 31X      0.226750
     45 H13        -2.9190    0.7920   -1.4310 ha        1 31X      0.226750
     46 H14         5.6840    1.7240   -0.8040 hc        1 31X      0.150500
     47 H15         6.9270    1.7270    0.5110 hc        1 31X      0.150500
     48 H16         2.9090    6.1860    0.8240 hc        1 31X      0.181000
     49 H17         6.0630    9.4380    2.1550 ha        1 31X      0.132000
     50 H18         8.9720    7.2970    6.6280 ha        1 31X      0.211500
     51 C           2.9930   -0.0750    3.0600 c2        1 31X     -0.442000
@<TRIPOS>BOND
     1    1    2 1   
     2    1   20 1   
     3    1   24 1   
     4    2   23 1   
     5    2   34 1   
     6    3   22 1   
     7    3   45 1   
     8    4   21 1   
     9    4   44 1   
    10    5    6 1   
    11    5    7 1   
    12    5   18 1   
    13    6   15 1   
    14    6   16 1   
    15    7    8 1   
    16    7   36 1   
    17    8    9 1   
    18    8   17 1   
    19    9   28 1   
    20    9   29 1   
    21   10   12 1   
    22   10   29 1   
    23   10   31 1   
    24   11   32 1   
    25   11   37 1   
    26   11   50 1   
    27   12   33 1   
    28   12   38 1   
    29   13   14 1   
    30   13   31 1   
    31   13   40 1   
    32   14   30 1   
    33   15   51 1   
    34   17   18 1   
    35   17   26 1   
    36   18   41 1   
    37   19   20 1   
    38   19   25 1   
    39   19   51 1   
    40   21   43 1   
    41   22   35 1   
    42   24   25 1   
    43   26   27 1   
    44   26   46 1   
    45   26   47 1   
    46   27   28 1   
    47   29   30 1   
    48   30   39 1   
    49   30   48 1   
    50   31   49 1   
    51   42   51 1   
@<TRIPOS>SUBSTRUCTURE
     1 31X         1 TEMP              0 ****  ****    0 ROOT
