@<TRIPOS>MOLECULE
31Y
   56    54     1     0     0
SMALL
bcc


@<TRIPOS>ATOM
      1 C2       -207.2400  -71.7260 -249.5950 c2        1 31Y      0.138000
      2 C3       -205.8360  -73.8520 -249.6460 c1        1 31Y      0.299000
      3 N4       -208.6890  -69.7540 -252.8220 n2        1 31Y     -0.245000
      4 C5       -210.7090  -71.6940 -251.0610 c2        1 31Y     -0.423000
      5 N6        372.4350  126.2450  458.7930 n3        1 31Y     -0.216000
      6 C7       -209.5610  -67.1910 -250.2770 c3        1 31Y      0.038000
      7 C9       -209.2890  -68.8710 -252.1190 c2        1 31Y     -0.014000
      8 C10      -206.5580  -66.8840 -252.7350 cu        1 31Y     -0.079000
      9 C11      -206.6880  -66.0040 -251.7290 cu        1 31Y     -0.079000
     10 C12      -207.6550  -67.0580 -251.8280 cu        1 31Y     -0.021000
     11 C13      -206.5850  -73.0680 -245.4870 c2        1 31Y     -0.054000
     12 C15       374.4690  126.4170  457.3860 c1        1 31Y      0.252000
     13 C18       369.7430  124.4930  457.2280 c1        1 31Y     -0.114000
     14 C20       374.1230  127.5770  460.7480 c2        1 31Y      0.251000
     15 C21       372.2600  128.5720  459.6140 c3        1 31Y     -0.040000
     16 C22       371.5210  127.3470  459.0780 c3        1 31Y     -0.121000
     17 O         372.9980  128.1860  460.8360 os        1 31Y     -0.058000
     18 C19       371.7800  124.9300  458.8440 c3        1 31Y      0.045000
     19 C16       373.1580  126.4450  457.5800 c2        1 31Y     -0.452000
     20 C14      -207.2420  -73.8570 -244.6240 c2        1 31Y     -0.266000
     21 C17       370.6670  124.7240  457.9520 c1        1 31Y     -0.264000
     22 C        -206.7360  -71.2790 -247.1510 c2        1 31Y      0.140000
     23 N1       -205.8360  -70.5340 -246.6030 n2        1 31Y     -0.235000
     24 N        -206.4910  -72.8540 -249.6260 n2        1 31Y     -0.355000
     25 C1       -207.4130  -70.9470 -248.4770 c2        1 31Y     -0.111000
     26 N2       -208.1340  -69.7650 -248.4590 n2        1 31Y     -0.043000
     27 C6       -209.0650  -69.2150 -249.0160 c1        1 31Y      0.307000
     28 C4       -210.0730  -70.8160 -250.3600 c1        1 31Y      0.011000
     29 N3       -209.8740  -68.2110 -249.2720 n3        1 31Y     -0.205000
     30 C8       -208.7560  -67.6930 -251.4280 c2        1 31Y     -0.285000
     31 H1       -205.5750  -69.7170 -247.1100 hn        1 31Y      0.169000
     32 H2       -210.7070  -71.7100 -252.1730 ha        1 31Y      0.238000
     33 H3       -210.5560  -66.8030 -250.6470 h1        1 31Y      0.129500
     34 H4       -209.0190  -66.3570 -249.7430 h1        1 31Y      0.129500
     35 H5       -210.3890  -69.0070 -251.9980 h4        1 31Y      0.143000
     36 H6       -207.7100  -69.6260 -252.9780 hn        1 31Y      0.148000
     37 H7       -206.0500  -67.2440 -253.6130 ha        1 31Y      0.223500
     38 H8       -206.3600  -65.1300 -251.1940 ha        1 31Y      0.223500
     39 H9       -208.3050  -74.1110 -244.7040 ha        1 31Y      0.131000
     40 H10       368.9210  124.2820  456.5860 ha        1 31Y      0.243000
     41 H11       371.4330  124.7820  459.9100 h1        1 31Y      0.128000
     42 H12       374.5610  127.2760  461.7300 h4        1 31Y      0.208500
     43 H13       374.6390  127.3750  459.7840 h4        1 31Y      0.208500
     44 H14       372.9860  129.0110  458.8840 h1        1 31Y      0.158500
     45 H15       371.5460  129.3430  460.0150 h1        1 31Y      0.158500
     46 H16       370.9440  127.6970  458.1710 h1        1 31Y      0.140000
     47 H17       370.7730  127.0030  459.8490 h1        1 31Y      0.140000
     48 H18       372.5770  124.1570  458.6230 h1        1 31Y      0.128000
     49 H19      -206.7130  -74.3110 -243.7760 ha        1 31Y      0.131000
     50 H20       372.5620  126.6040  456.6410 h4        1 31Y      0.203000
     51 H21      -205.5110  -72.8300 -245.3570 h4        1 31Y      0.172000
     52 H22      -207.7090  -71.4550 -250.5700 h4        1 31Y      0.168000
     53 H23      -211.3140  -72.5230 -250.6420 ha        1 31Y      0.238000
     54 N5       -207.1550  -72.5380 -246.6620 n3        1 31Y     -0.252000
     55 H32      -210.8250  -68.2970 -248.9620 hn        1 31Y      0.288000
     56 H52      -208.1390  -72.6900 -246.7600 hn        1 31Y      0.205000
@<TRIPOS>BOND
     1    1   24 1   
     2    1   25 1   
     3    1   52 1   
     4    2   24 1   
     5    3    7 1   
     6    3   36 1   
     7    4   28 1   
     8    4   32 1   
     9    4   53 1   
    10    5   16 1   
    11    5   18 1   
    12    5   19 1   
    13    6   29 1   
    14    6   30 1   
    15    6   33 1   
    16    6   34 1   
    17    7   30 1   
    18    7   35 1   
    19    8    9 1   
    20    8   10 1   
    21    8   37 1   
    22    9   10 1   
    23    9   38 1   
    24   10   30 1   
    25   11   20 1   
    26   11   51 1   
    27   11   54 1   
    28   12   19 1   
    29   13   21 1   
    30   13   40 1   
    31   14   17 1   
    32   14   42 1   
    33   14   43 1   
    34   15   16 1   
    35   15   17 1   
    36   15   44 1   
    37   15   45 1   
    38   16   46 1   
    39   16   47 1   
    40   18   21 1   
    41   18   41 1   
    42   18   48 1   
    43   19   50 1   
    44   20   39 1   
    45   20   49 1   
    46   22   23 1   
    47   22   25 1   
    48   22   54 1   
    49   23   31 1   
    50   25   26 1   
    51   26   27 1   
    52   27   29 1   
    53   29   55 1   
    54   54   56 1   
@<TRIPOS>SUBSTRUCTURE
     1 31Y         1 TEMP              0 ****  ****    0 ROOT
