@<TRIPOS>MOLECULE
31Y
   54    54     1     0     0
SMALL
bcc


@<TRIPOS>ATOM
      1 C2          0.1850   -2.5870    0.9330 c2        1 31Y      0.027000
      2 C3          1.6210   -3.1600    2.6560 c1        1 31Y     -0.018000
      3 N4         -7.1620   -0.0690    1.5450 n3        1 31Y     -0.168000
      4 C5         -3.4200    3.1630   -3.8760 c2        1 31Y     -0.539000
      5 N6          2.1550    0.5500    7.2460 n3        1 31Y     -0.237000
      6 C7         -3.4000   -0.7270   -1.6530 c3        1 31Y      0.040000
      7 C9         -8.1470    0.5350    2.1690 c1        1 31Y     -0.136000
      8 C10        -6.8030   -1.3910    1.8770 c2        1 31Y     -0.005000
      9 C11        -5.8000   -2.0860    1.2970 c2        1 31Y     -0.126000
     10 C12        -4.9680   -1.5970    0.2830 c1        1 31Y     -0.106000
     11 C13         1.3120    0.8470    4.2760 c2        1 31Y     -0.030000
     12 C15         1.8370    2.5890    5.9420 c2        1 31Y     -0.155000
     13 C18         4.0180    2.3110    8.8640 c1        1 31Y      0.189000
     14 C20         2.6020   -0.2200    9.6140 c3        1 31Y     -0.057000
     15 C21         0.3520    0.0870    8.9480 c3        1 31Y     -0.057000
     16 C22         0.7700    0.1450    7.4740 c3        1 31Y     -0.099500
     17 O           1.2640   -0.6930    9.7140 os        1 31Y     -0.264000
     18 C19         3.0630   -0.1330    8.1530 c3        1 31Y     -0.099500
     19 C16         2.3450    1.9420    7.0280 c2        1 31Y      0.070000
     20 C14         1.0590    2.0440    4.8590 c2        1 31Y     -0.186000
     21 C17         3.1620    2.7340    7.9570 c2        1 31Y     -0.459000
     22 C           0.7110   -0.8970    2.6350 c2        1 31Y      0.200000
     23 N1          1.5030   -1.8990    3.2010 n3        1 31Y     -0.210000
     24 N           0.9570   -3.4950    1.5230 n2        1 31Y     -0.230000
     25 C1          0.0020   -1.2530    1.4290 c2        1 31Y     -0.191000
     26 N2         -0.8180   -0.2940    0.8160 n2        1 31Y     -0.155000
     27 C6         -1.4710   -0.4900   -0.2420 c1        1 31Y      0.101000
     28 C4         -3.9880    2.1960   -3.2160 c1        1 31Y      0.151000
     29 N3         -2.0200   -0.4420   -1.3610 n2        1 31Y     -0.185000
     30 C8         -4.2410   -1.2020   -0.5850 c1        1 31Y     -0.195000
     31 H1          2.0130   -1.7170    4.0400 hn        1 31Y      0.258000
     32 H2         -3.9730    3.9510   -4.4110 ha        1 31Y      0.196500
     33 H3         -3.3880   -1.4980   -2.4840 h1        1 31Y      0.144500
     34 H4         -3.8440    0.2340   -2.0790 h1        1 31Y      0.144500
     35 H5         -8.3440    1.5740    1.8270 ha        1 31Y      0.042000
     36 H6         -6.6050    0.3380    0.8120 hn        1 31Y      0.176000
     37 H7         -7.4300   -1.8320    2.6790 h4        1 31Y      0.182000
     38 H8         -5.6000   -3.1200    1.6300 ha        1 31Y      0.162000
     39 H9          0.2590    2.7070    4.4860 ha        1 31Y      0.131000
     40 H10         2.1440    0.2150    4.6380 h4        1 31Y      0.162000
     41 H11         4.0960    0.3210    8.1100 h1        1 31Y      0.110250
     42 H12         3.2090   -0.9850   10.1660 h1        1 31Y      0.100250
     43 H13         2.6870    0.7760   10.1270 h1        1 31Y      0.100250
     44 H14         0.2750    1.1160    9.3860 h1        1 31Y      0.100250
     45 H15        -0.6270   -0.4500    9.0530 h1        1 31Y      0.100250
     46 H16         0.0780    0.8370    6.9210 h1        1 31Y      0.110250
     47 H17         0.6710   -0.8880    7.0340 h1        1 31Y      0.110250
     48 H18         3.1530   -1.1850    7.7510 h1        1 31Y      0.110250
     49 H19         2.0150    3.6770    5.8560 ha        1 31Y      0.133000
     50 H20         3.0470    3.8360    7.8520 ha        1 31Y      0.199000
     51 H21        -0.0640    0.9900    2.7570 hn        1 31Y      0.265000
     52 H22        -0.3400   -2.8900    0.0060 h4        1 31Y      0.162000
     53 H23        -2.3260    3.2770   -3.9600 ha        1 31Y      0.196500
     54 N5          0.5850    0.3660    3.1900 n3        1 31Y     -0.265000
@<TRIPOS>BOND
     1    1   24 1   
     2    1   25 1   
     3    1   52 1   
     4    2   23 1   
     5    2   24 1   
     6    3    7 1   
     7    3    8 1   
     8    3   36 1   
     9    4   28 1   
    10    4   32 1   
    11    4   53 1   
    12    5   16 1   
    13    5   18 1   
    14    5   19 1   
    15    6   29 1   
    16    6   30 1   
    17    6   33 1   
    18    6   34 1   
    19    7   35 1   
    20    8    9 1   
    21    8   37 1   
    22    9   10 1   
    23    9   38 1   
    24   10   30 1   
    25   11   20 1   
    26   11   40 1   
    27   11   54 1   
    28   12   19 1   
    29   12   20 1   
    30   12   49 1   
    31   13   21 1   
    32   14   17 1   
    33   14   18 1   
    34   14   42 1   
    35   14   43 1   
    36   15   16 1   
    37   15   17 1   
    38   15   44 1   
    39   15   45 1   
    40   16   46 1   
    41   16   47 1   
    42   18   41 1   
    43   18   48 1   
    44   19   21 1   
    45   20   39 1   
    46   21   50 1   
    47   22   23 1   
    48   22   25 1   
    49   22   54 1   
    50   23   31 1   
    51   25   26 1   
    52   26   27 1   
    53   27   29 1   
    54   51   54 1   
@<TRIPOS>SUBSTRUCTURE
     1 31Y         1 TEMP              0 ****  ****    0 ROOT
