@<TRIPOS>MOLECULE
31Z
   56    59     1     0     0
SMALL
bcc


@<TRIPOS>ATOM
      1 C1          0.2870    1.3740   -0.8290 c3        1 31Z     -0.025900
      2 C2          1.6010    0.7410   -0.6060 cc        1 31Z     -0.274400
      3 C3          2.1630    0.6200    0.6310 cd        1 31Z      0.051600
      4 N4          3.3990    0.0320    0.8460 n         1 31Z     -0.365000
      5 C5          4.1450   -0.4470   -0.2630 c         1 31Z      0.805500
      6 O6          5.2770   -0.9620   -0.1370 o         1 31Z     -0.637500
      7 N7          3.5780   -0.3380   -1.5450 n         1 31Z     -0.588500
      8 C8          2.3200    0.2350   -1.7870 c         1 31Z      0.718700
      9 O9          1.8980    0.2770   -2.9570 o         1 31Z     -0.626500
     10 C10         3.9360   -0.0560    2.2030 c3        1 31Z      0.116700
     11 C11         4.2560   -1.4910    2.6450 c3        1 31Z     -0.097400
     12 C12         4.7190   -1.4700    4.0860 c3        1 31Z     -0.076400
     13 C13         5.8960   -0.5170    4.2830 c3        1 31Z      0.157800
     14 N14         5.6240    0.8250    3.7840 n3        1 31Z     -0.728600
     15 C15         5.2080    0.8200    2.3880 c3        1 31Z      0.150800
     16 C16         6.7360    1.7500    4.0050 c3        1 31Z      0.226100
     17 C17         7.1070    1.9130    5.4470 ca        1 31Z     -0.161300
     18 C18         6.1630    2.3790    6.3690 ca        1 31Z     -0.104000
     19 C19         6.5050    2.5780    7.6990 ca        1 31Z     -0.132000
     20 C20         7.8010    2.3180    8.1690 ca        1 31Z     -0.072600
     21 C21         8.7540    1.8580    7.2570 ca        1 31Z      0.054100
     22 C22         8.4170    1.6520    5.8930 ca        1 31Z      0.107900
     23 F23         9.3620    1.2130    5.0260 f         1 31Z     -0.149900
     24 O24        10.1020    1.7260    7.6020 os        1 31Z     -0.239200
     25 C25        10.5080    0.4380    7.9460 ca        1 31Z      0.121100
     26 C26         9.8380   -0.3380    8.9000 ca        1 31Z     -0.144000
     27 C27        10.3700   -1.5760    9.2540 ca        1 31Z     -0.114000
     28 C28        11.5530   -2.0400    8.6770 ca        1 31Z     -0.157000
     29 C29        12.2100   -1.2460    7.7340 ca        1 31Z      0.020400
     30 C30        11.7000   -0.0040    7.3510 ca        1 31Z     -0.142000
     31 CL         13.6630   -1.8060    7.0290 cl        1 31Z     -0.135400
     32 C32         8.0690    2.5580    9.6570 c         1 31Z      0.921200
     33 O33         7.9480    1.5620   10.4250 o         1 31Z     -0.808300
     34 O34         8.3350    3.7310   10.0190 o         1 31Z     -0.808300
     35 H1         -0.2760    1.4860    0.1300 hc        1 31Z      0.047367
     36 H2         -0.3200    0.7560   -1.5380 hc        1 31Z      0.047367
     37 H3          0.4220    2.3870   -1.2850 hc        1 31Z      0.047367
     38 H4          1.6430    0.9910    1.5360 h4        1 31Z      0.166000
     39 H5          4.1190   -0.6860   -2.3070 hn        1 31Z      0.348500
     40 H6          3.1320    0.3460    2.8920 h1        1 31Z      0.071700
     41 H7          5.0610   -1.9180    1.9890 hc        1 31Z      0.058700
     42 H8          3.3490   -2.1400    2.5450 hc        1 31Z      0.058700
     43 H9          5.0440   -2.4990    4.3890 hc        1 31Z      0.049200
     44 H10         3.8710   -1.1700    4.7550 hc        1 31Z      0.049200
     45 H11         6.1140   -0.4240    5.3850 h1        1 31Z      0.051700
     46 H12         6.8060   -0.9660    3.7870 h1        1 31Z      0.051700
     47 H14         4.9730    1.8800    2.0930 h1        1 31Z      0.048200
     48 H15         6.0140    0.4320    1.6980 h1        1 31Z      0.048200
     49 H16         6.4080    2.7570    3.6140 h1        1 31Z      0.040700
     50 H17         7.6490    1.4360    3.4160 h1        1 31Z      0.040700
     51 H18         5.1390    2.5850    6.0230 ha        1 31Z      0.127000
     52 H19         5.7560    2.9500    8.4160 ha        1 31Z      0.145000
     53 H20         8.9210    0.0590    9.3860 ha        1 31Z      0.221000
     54 H21         9.8550   -2.1890   10.0080 ha        1 31Z      0.133000
     55 H22        11.9650   -3.0160    8.9660 ha        1 31Z      0.130000
     56 H23        12.2100    0.6270    6.6100 ha        1 31Z      0.154000
@<TRIPOS>BOND
     1    1    2 1   
     2    1   35 1   
     3    1   36 1   
     4    1   37 1   
     5    2    3 2   
     6    2    8 1   
     7    3    4 1   
     8    3   38 1   
     9    4    5 1   
    10    4   10 1   
    11    5    6 2   
    12    5    7 1   
    13    7    8 1   
    14    7   39 1   
    15    8    9 2   
    16   10   11 1   
    17   10   15 1   
    18   10   40 1   
    19   11   12 1   
    20   11   41 1   
    21   11   42 1   
    22   12   13 1   
    23   12   43 1   
    24   12   44 1   
    25   13   14 1   
    26   13   45 1   
    27   13   46 1   
    28   14   15 1   
    29   14   16 1   
    30   15   47 1   
    31   15   48 1   
    32   16   17 1   
    33   16   49 1   
    34   16   50 1   
    35   17   18 ar  
    36   17   22 ar  
    37   18   19 ar  
    38   18   51 1   
    39   19   20 ar  
    40   19   52 1   
    41   20   21 ar  
    42   20   32 1   
    43   21   22 ar  
    44   21   24 1   
    45   22   23 1   
    46   24   25 1   
    47   25   26 ar  
    48   25   30 ar  
    49   26   27 ar  
    50   26   53 1   
    51   27   28 ar  
    52   27   54 1   
    53   28   29 ar  
    54   28   55 1   
    55   29   30 ar  
    56   29   31 1   
    57   30   56 1   
    58   32   33 1   
    59   32   34 1   
@<TRIPOS>SUBSTRUCTURE
     1 31Z         1 TEMP              0 ****  ****    0 ROOT
