@<TRIPOS>MOLECULE
31Z
   56    59     1     0     0
SMALL
bcc


@<TRIPOS>ATOM
      1 C1          0.3010    1.3610   -0.8500 c3        1 31Z     -0.025900
      2 C2          1.6300    0.7590   -0.6280 cc        1 31Z     -0.274400
      3 C3          2.1830    0.6230    0.6110 cd        1 31Z      0.051600
      4 N4          3.4220    0.0450    0.8260 n         1 31Z     -0.365000
      5 C5          4.1810   -0.4110   -0.2830 c         1 31Z      0.805500
      6 O6          5.3140   -0.9230   -0.1560 o         1 31Z     -0.637500
      7 N7          3.6260   -0.2820   -1.5690 n         1 31Z     -0.588500
      8 C8          2.3680    0.2900   -1.8130 c         1 31Z      0.718700
      9 O9          1.9640    0.3670   -2.9870 o         1 31Z     -0.626500
     10 C10         3.9530   -0.0530    2.1850 c3        1 31Z      0.116700
     11 C11         4.2830   -1.4900    2.6140 c3        1 31Z     -0.097400
     12 C12         4.7380   -1.4800    4.0580 c3        1 31Z     -0.076400
     13 C13         5.9050   -0.5190    4.2720 c3        1 31Z      0.157800
     14 N14         5.6250    0.8260    3.7850 n3        1 31Z     -0.728600
     15 C15         5.2160    0.8320    2.3870 c3        1 31Z      0.150800
     16 C16         6.7260    1.7570    4.0230 c3        1 31Z      0.226100
     17 C17         7.0880    1.9090    5.4690 ca        1 31Z     -0.161300
     18 C18         6.1350    2.3580    6.3900 ca        1 31Z     -0.103000
     19 C19         6.4660    2.5460    7.7240 ca        1 31Z     -0.132000
     20 C20         7.7620    2.2920    8.1990 ca        1 31Z     -0.072600
     21 C21         8.7240    1.8480    7.2880 ca        1 31Z      0.054100
     22 C22         8.3960    1.6540    5.9200 ca        1 31Z      0.107900
     23 F23         9.3510    1.2310    5.0540 f         1 31Z     -0.149900
     24 O24        10.0700    1.7230    7.6410 os        1 31Z     -0.239200
     25 C25        10.4850    0.4350    7.9730 ca        1 31Z      0.121100
     26 C26         9.8150   -0.3560    8.9160 ca        1 31Z     -0.144000
     27 C27        10.3540   -1.5930    9.2600 ca        1 31Z     -0.114000
     28 C28        11.5440   -2.0420    8.6850 ca        1 31Z     -0.157000
     29 C29        12.2010   -1.2340    7.7540 ca        1 31Z      0.020400
     30 C30        11.6830    0.0080    7.3810 ca        1 31Z     -0.142000
     31 CL         13.6620   -1.7750    7.0530 cl        1 31Z     -0.135400
     32 C32         8.0190    2.5190    9.6910 c         1 31Z      0.921200
     33 O33         7.9010    1.5140   10.4470 o         1 31Z     -0.808300
     34 O34         8.2730    3.6900   10.0660 o         1 31Z     -0.808300
     35 H1          0.3520    2.1020   -1.6880 hc        1 31Z      0.047367
     36 H2         -0.0680    1.8780    0.0690 hc        1 31Z      0.047367
     37 H3         -0.4360    0.5690   -1.1370 hc        1 31Z      0.047367
     38 H4          1.6510    0.9740    1.5170 h4        1 31Z      0.166000
     39 H5          4.1780   -0.6090   -2.3320 hn        1 31Z      0.348500
     40 H6          3.1420    0.3340    2.8750 h1        1 31Z      0.071700
     41 H7          5.0960   -1.9030    1.9580 hc        1 31Z      0.058700
     42 H8          3.3820   -2.1460    2.5020 hc        1 31Z      0.058700
     43 H9          5.0700   -2.5100    4.3520 hc        1 31Z      0.049200
     44 H10         3.8830   -1.1940    4.7250 hc        1 31Z      0.049200
     45 H11         6.1160   -0.4360    5.3760 h1        1 31Z      0.051700
     46 H12         6.8220   -0.9550    3.7760 h1        1 31Z      0.051700
     47 H14         6.0290    0.4580    1.6970 h1        1 31Z      0.048200
     48 H15         4.9730    1.8930    2.1020 h1        1 31Z      0.048200
     49 H16         7.6460    1.4580    3.4370 h1        1 31Z      0.040700
     50 H17         6.3920    2.7660    3.6410 h1        1 31Z      0.040700
     51 H18         5.1110    2.5600    6.0390 ha        1 31Z      0.127000
     52 H19         5.7110    2.9050    8.4400 ha        1 31Z      0.145000
     53 H20         8.8920    0.0290    9.4000 ha        1 31Z      0.221000
     54 H21         9.8410   -2.2180   10.0050 ha        1 31Z      0.133000
     55 H22        11.9620   -3.0190    8.9660 ha        1 31Z      0.130000
     56 H23        12.1920    0.6510    6.6500 ha        1 31Z      0.154000
@<TRIPOS>BOND
     1    1    2 1   
     2    1   35 1   
     3    1   36 1   
     4    1   37 1   
     5    2    3 2   
     6    2    8 1   
     7    3    4 1   
     8    3   38 1   
     9    4    5 1   
    10    4   10 1   
    11    5    6 2   
    12    5    7 1   
    13    7    8 1   
    14    7   39 1   
    15    8    9 2   
    16   10   11 1   
    17   10   15 1   
    18   10   40 1   
    19   11   12 1   
    20   11   41 1   
    21   11   42 1   
    22   12   13 1   
    23   12   43 1   
    24   12   44 1   
    25   13   14 1   
    26   13   45 1   
    27   13   46 1   
    28   14   15 1   
    29   14   16 1   
    30   15   47 1   
    31   15   48 1   
    32   16   17 1   
    33   16   49 1   
    34   16   50 1   
    35   17   18 ar  
    36   17   22 ar  
    37   18   19 ar  
    38   18   51 1   
    39   19   20 ar  
    40   19   52 1   
    41   20   21 ar  
    42   20   32 1   
    43   21   22 ar  
    44   21   24 1   
    45   22   23 1   
    46   24   25 1   
    47   25   26 ar  
    48   25   30 ar  
    49   26   27 ar  
    50   26   53 1   
    51   27   28 ar  
    52   27   54 1   
    53   28   29 ar  
    54   28   55 1   
    55   29   30 ar  
    56   29   31 1   
    57   30   56 1   
    58   32   33 1   
    59   32   34 1   
@<TRIPOS>SUBSTRUCTURE
     1 31Z         1 TEMP              0 ****  ****    0 ROOT
