@<TRIPOS>MOLECULE
31Z
   56    59     1     0     0
SMALL
bcc


@<TRIPOS>ATOM
      1 C1          0.2730    1.3430   -0.8190 c3        1 31Z     -0.025900
      2 C2          1.6010    0.7400   -0.6020 cc        1 31Z     -0.274400
      3 C3          2.1620    0.6100    0.6340 cd        1 31Z      0.051600
      4 N4          3.4020    0.0310    0.8450 n         1 31Z     -0.365000
      5 C5          4.1530   -0.4330   -0.2670 c         1 31Z      0.805500
      6 O6          5.2860   -0.9460   -0.1440 o         1 31Z     -0.637500
      7 N7          3.5890   -0.3100   -1.5490 ns        1 31Z     -0.588500
      8 C8          2.3300    0.2630   -1.7880 c         1 31Z      0.718700
      9 O9          1.9190    0.3330   -2.9600 o         1 31Z     -0.626500
     10 C10         3.9420   -0.0600    2.2010 c3        1 31Z      0.116700
     11 C11         4.2720   -1.4950    2.6360 c3        1 31Z     -0.097400
     12 C12         4.7360   -1.4780    4.0770 c3        1 31Z     -0.076400
     13 C13         5.9060   -0.5170    4.2780 c3        1 31Z      0.157800
     14 N14         5.6250    0.8260    3.7850 n3        1 31Z     -0.728600
     15 C15         5.2080    0.8240    2.3890 c3        1 31Z      0.150800
     16 C16         6.7300    1.7560    4.0100 c3        1 31Z      0.226100
     17 C17         7.1010    1.9160    5.4520 ca        1 31Z     -0.161300
     18 C18         6.1550    2.3770    6.3750 ca        1 31Z     -0.103000
     19 C19         6.4950    2.5720    7.7060 ca        1 31Z     -0.132000
     20 C20         7.7920    2.3150    8.1760 ca        1 31Z     -0.072600
     21 C21         8.7470    1.8600    7.2630 ca        1 31Z      0.054100
     22 C22         8.4110    1.6580    5.8980 ca        1 31Z      0.107900
     23 F23         9.3580    1.2240    5.0300 f         1 31Z     -0.149900
     24 O24        10.0940    1.7310    7.6090 os        1 31Z     -0.239200
     25 C25        10.5040    0.4430    7.9490 ca        1 31Z      0.121100
     26 C26         9.8350   -0.3380    8.9010 ca        1 31Z     -0.144000
     27 C27        10.3700   -1.5750    9.2510 ca        1 31Z     -0.114000
     28 C28        11.5540   -2.0340    8.6730 ca        1 31Z     -0.157000
     29 C29        12.2100   -1.2360    7.7330 ca        1 31Z      0.020400
     30 C30        11.6970    0.0050    7.3540 ca        1 31Z     -0.142000
     31 Cl         13.6650   -1.7900    7.0280 cl        1 31Z     -0.135400
     32 C32         8.0580    2.5510    9.6650 c         1 31Z      0.921200
     33 O33         7.9390    1.5530   10.4290 o         1 31Z     -0.808300
     34 O34         8.3210    3.7240   10.0300 o         1 31Z     -0.808300
     35 H1         -0.4680    0.5510   -1.0970 hc        1 31Z      0.047367
     36 H2         -0.0900    1.8660    0.1000 hc        1 31Z      0.047367
     37 H3          0.3190    2.0790   -1.6610 hc        1 31Z      0.047367
     38 H4          1.6370    0.9680    1.5420 h4        1 31Z      0.166000
     39 H5          4.1360   -0.6420   -2.3150 hn        1 31Z      0.348500
     40 H6          3.1350    0.3330    2.8930 h1        1 31Z      0.071700
     41 H7          3.3690   -2.1490    2.5340 hc        1 31Z      0.058700
     42 H8          5.0790   -1.9130    1.9780 hc        1 31Z      0.058700
     43 H9          5.0680   -2.5060    4.3740 hc        1 31Z      0.049200
     44 H10         3.8860   -1.1860    4.7480 hc        1 31Z      0.049200
     45 H11         6.1250   -0.4280    5.3800 h1        1 31Z      0.051700
     46 H12         6.8190   -0.9580    3.7790 h1        1 31Z      0.051700
     47 H14         4.9650    1.8840    2.1000 h1        1 31Z      0.048200
     48 H15         6.0160    0.4450    1.6960 h1        1 31Z      0.048200
     49 H16         6.3960    2.7630    3.6230 h1        1 31Z      0.040700
     50 H17         7.6460    1.4500    3.4200 h1        1 31Z      0.040700
     51 H18         5.1310    2.5800    6.0290 ha        1 31Z      0.127000
     52 H19         5.7450    2.9400    8.4230 ha        1 31Z      0.145000
     53 H20         8.9160    0.0560    9.3870 ha        1 31Z      0.221000
     54 H21         9.8560   -2.1920   10.0030 ha        1 31Z      0.133000
     55 H22        11.9680   -3.0110    8.9600 ha        1 31Z      0.130000
     56 H23        12.2060    0.6400    6.6150 ha        1 31Z      0.154000
@<TRIPOS>BOND
     1    1    2 1   
     2    1   35 1   
     3    1   36 1   
     4    1   37 1   
     5    2    3 2   
     6    2    8 1   
     7    3    4 1   
     8    3   38 1   
     9    4    5 1   
    10    4   10 1   
    11    5    6 2   
    12    5    7 1   
    13    7    8 1   
    14    7   39 1   
    15    8    9 2   
    16   10   11 1   
    17   10   15 1   
    18   10   40 1   
    19   11   12 1   
    20   11   41 1   
    21   11   42 1   
    22   12   13 1   
    23   12   43 1   
    24   12   44 1   
    25   13   14 1   
    26   13   45 1   
    27   13   46 1   
    28   14   15 1   
    29   14   16 1   
    30   15   47 1   
    31   15   48 1   
    32   16   17 1   
    33   16   49 1   
    34   16   50 1   
    35   17   18 ar  
    36   17   22 ar  
    37   18   19 ar  
    38   18   51 1   
    39   19   20 ar  
    40   19   52 1   
    41   20   21 ar  
    42   20   32 1   
    43   21   22 ar  
    44   21   24 1   
    45   22   23 1   
    46   24   25 1   
    47   25   26 ar  
    48   25   30 ar  
    49   26   27 ar  
    50   26   53 1   
    51   27   28 ar  
    52   27   54 1   
    53   28   29 ar  
    54   28   55 1   
    55   29   30 ar  
    56   29   31 1   
    57   30   56 1   
    58   32   33 1   
    59   32   34 1   
@<TRIPOS>SUBSTRUCTURE
     1 31Z         1 TEMP              0 ****  ****    0 ROOT
