@<TRIPOS>MOLECULE
320
   49    51     1     0     0
SMALL
bcc


@<TRIPOS>ATOM
      1 F31      -437.7460  130.7290  -61.0940 f         1 320     -0.059000
      2 C28      -439.0010  130.9140  -61.5440 ca        1 320      0.173000
      3 C29      -439.2170  131.3310  -62.8760 ca        1 320     -0.160000
      4 C30      -440.5140  131.5180  -63.3330 ca        1 320     -0.062000
      5 C27      -440.0980  130.6930  -60.6820 ca        1 320     -0.160000
      6 C26      -441.3880  130.8860  -61.1540 ca        1 320     -0.062000
      7 C23      -441.6040  131.2930  -62.4790 ca        1 320     -0.210000
      8 C22      -442.9860  131.5580  -62.9570 c3        1 320     -0.083000
      9 C21      -443.5580  130.3600  -63.5350 c1        1 320      0.430000
     10 O25      -443.9870  129.3890  -63.9890 o         1 320      0.110000
     11 N20       230.2080  -68.0930   29.6790 n         1 320     -0.364000
     12 C19       231.0220  -68.9540   30.3380 c2        1 320      0.338000
     13 O24       232.2570  -68.9880   30.3410 o         1 320     -0.249000
     14 N18       230.3790  -70.0090   31.2580 n4        1 320     -0.031000
     15 C14       229.1560  -70.5940   30.7210 ca        1 320     -0.186000
     16 C15       229.2490  -71.7050   29.8620 ca        1 320     -0.120000
     17 C16       228.0790  -72.2850   29.3610 ca        1 320      0.099000
     18 F17       228.1520  -73.3490   28.5370 f         1 320     -0.048000
     19 C13       227.9060  -70.0620   31.0830 ca        1 320     -0.088000
     20 C12       226.7440  -70.6380   30.5870 ca        1 320     -0.164000
     21 C11       226.8090  -71.7450   29.7310 ca        1 320      0.125000
     22 O10       225.7290  -72.3900   29.1930 os        1 320     -0.109000
     23 C6        224.4600  -71.9090   29.5550 c2        1 320      0.067000
     24 C5        223.7980  -72.4780   30.6380 c2        1 320     -0.193000
     25 C4        222.4560  -72.0860   30.8930 c2        1 320     -0.045000
     26 N3        221.7590  -71.2010   30.1760 n2        1 320     -0.109000
     27 C2        222.4240  -70.6570   29.1130 c2        1 320      0.036000
     28 C1        223.8070  -70.9730   28.7450 c2        1 320     -0.122000
     29 N9        221.9480  -69.7210   28.1850 na        1 320     -0.185000
     30 C8        222.9590  -69.4700   27.2590 c2        1 320     -0.045000
     31 C7        224.1050  -70.2030   27.5700 c2        1 320     -0.204000
     32 H29      -438.3530  131.5090  -63.5380 ha        1 320      0.184000
     33 H30      -440.6750  131.8590  -64.3680 ha        1 320      0.150000
     34 H27      -439.9170  130.3770  -59.6420 ha        1 320      0.184000
     35 H26      -442.2390  130.7270  -60.4720 ha        1 320      0.150000
     36 H22      -443.0010  132.3700  -63.7510 hc        1 320      0.207000
     37 H22A     -443.6610  131.8930  -62.1070 hc        1 320      0.207000
     38 HN20      229.2220  -68.2130   29.6400 hn        1 320      0.280500
     39 HN18      230.1810  -69.5690   32.1650 hn        1 320      0.269000
     40 H15       230.2200  -72.1420   29.5710 ha        1 320      0.179000
     41 H13       227.8240  -69.2010   31.7680 ha        1 320      0.159000
     42 H12       225.7580  -70.2270   30.8690 ha        1 320      0.191000
     43 H5        224.2810  -73.2320   31.2720 ha        1 320      0.163000
     44 H4        221.9100  -72.5360   31.7450 h4        1 320      0.181000
     45 HN9       221.0260  -69.3640   28.1600 hn        1 320      0.277000
     46 H8        222.7870  -68.7770   26.4300 h4        1 320      0.185000
     47 H7        225.0360  -70.2180   27.0120 ha        1 320      0.164000
     48 H202      230.6430  -67.4330   29.0680 hn        1 320      0.280500
     49 H182      231.0880  -70.7450   31.3990 hn        1 320      0.269000
@<TRIPOS>BOND
     1    1    2 1   
     2    2    3 1   
     3    2    5 1   
     4    3    4 1   
     5    3   32 1   
     6    4    7 1   
     7    4   33 1   
     8    5    6 1   
     9    5   34 1   
    10    6    7 1   
    11    6   35 1   
    12    7    8 1   
    13    8    9 1   
    14    8   36 1   
    15    8   37 1   
    16    9   10 1   
    17   11   12 1   
    18   11   38 1   
    19   11   48 1   
    20   12   13 1   
    21   12   14 1   
    22   14   15 1   
    23   14   39 1   
    24   14   49 1   
    25   15   16 1   
    26   15   19 1   
    27   16   17 1   
    28   16   40 1   
    29   17   18 1   
    30   17   21 1   
    31   19   20 1   
    32   19   41 1   
    33   20   21 1   
    34   20   42 1   
    35   21   22 1   
    36   22   23 1   
    37   23   24 1   
    38   23   28 1   
    39   24   25 1   
    40   24   43 1   
    41   25   26 1   
    42   25   44 1   
    43   26   27 1   
    44   27   28 1   
    45   27   29 1   
    46   28   31 1   
    47   29   30 1   
    48   29   45 1   
    49   30   31 1   
    50   30   46 1   
    51   31   47 1   
@<TRIPOS>SUBSTRUCTURE
     1 320         1 TEMP              0 ****  ****    0 ROOT
