@<TRIPOS>MOLECULE
320
   48    51     1     0     0
SMALL
bcc


@<TRIPOS>ATOM
      1 F31         1.0150    0.2620    2.1040 f         1 320     -0.104900
      2 C28         2.1790    0.1430    1.4350 ca        1 320      0.177900
      3 C29         3.1980    1.1000    1.6180 ca        1 320     -0.159000
      4 C30         4.3950    0.9680    0.9230 ca        1 320     -0.092000
      5 C27         2.3750   -0.9380    0.5500 ca        1 320     -0.159000
      6 C26         3.5770   -1.0530   -0.1350 ca        1 320     -0.092000
      7 C23         4.5990   -0.1110    0.0530 ca        1 320     -0.200300
      8 C22         5.8590   -0.2070   -0.7250 c3        1 320     -0.089100
      9 C21         6.9560   -0.9440   -0.0060 c         1 320      0.558100
     10 O25         8.1550   -0.7010   -0.0250 o         1 320     -0.438100
     11 N20         6.5470   -2.1340    0.8240 n4        1 320     -0.595600
     12 C19         6.9710   -3.4860    0.2010 c         1 320      0.642100
     13 O24         6.0090   -4.2440    0.0380 o         1 320     -0.488100
     14 N18         8.2840   -3.6300   -0.1310 n         1 320     -0.398100
     15 C14         8.8400   -4.8830   -0.5200 ca        1 320     -0.018400
     16 C15         8.0790   -5.8440   -1.2080 ca        1 320     -0.141000
     17 C16         8.6790   -7.0430   -1.6160 ca        1 320      0.134900
     18 F17         7.9510   -7.9680   -2.2740 f         1 320     -0.098900
     19 C13        10.1990   -5.1250   -0.2330 ca        1 320     -0.113000
     20 C12        10.7940   -6.3110   -0.6420 ca        1 320     -0.151000
     21 C11        10.0530   -7.2770   -1.3290 ca        1 320      0.125100
     22 O10        10.5320   -8.5000   -1.7430 os        1 320     -0.213200
     23 C6         11.9140   -8.7000   -1.6500 ca        1 320      0.143100
     24 C5         12.8170   -7.9560   -2.4040 ca        1 320     -0.296300
     25 C4         14.1900   -8.3100   -2.3660 ca        1 320      0.423200
     26 N3         14.7130   -9.3140   -1.6570 nb        1 320     -0.652000
     27 C2         13.8140  -10.0370   -0.9230 ca        1 320      0.430800
     28 C1         12.3750   -9.7700   -0.8730 ca        1 320     -0.194100
     29 N9         14.0620  -11.1370   -0.0920 na        1 320     -0.277100
     30 C8         12.8460  -11.5640    0.4460 cc        1 320     -0.086100
     31 C7         11.8010  -10.7560    0.0010 cd        1 320     -0.172200
     32 H29         3.0310    1.9500    2.2990 ha        1 320      0.177000
     33 H30         5.1780    1.7330    1.0510 ha        1 320      0.150000
     34 H27         1.5660   -1.6710    0.3990 ha        1 320      0.177000
     35 H26         3.7090   -1.8790   -0.8530 ha        1 320      0.150000
     36 H22         6.2590    0.8210   -0.9640 hc        1 320      0.128200
     37 H22A        5.6850   -0.7370   -1.7070 hc        1 320      0.128200
     38 HN20        6.9570   -2.0610    1.7610 hn        1 320      0.477800
     39 HN18        8.9430   -2.9010    0.0660 hn        1 320      0.361500
     40 H15         7.0110   -5.6890   -1.4360 ha        1 320      0.178000
     41 H13        10.8100   -4.3840    0.3090 ha        1 320      0.149000
     42 H12        11.8590   -6.4970   -0.4210 ha        1 320      0.178000
     43 H5         12.4810   -7.1210   -3.0320 ha        1 320      0.154000
     44 H4         14.9180   -7.7320   -2.9670 h4        1 320      0.035100
     45 HN9        14.9430  -11.5640    0.0370 hn        1 320      0.320700
     46 H8         12.8160  -12.4250    1.1190 h4        1 320      0.181000
     47 H7         10.7480  -10.8540    0.2480 ha        1 320      0.170000
     48 H202        5.5170   -2.1610    0.9130 hn        1 320      0.477800
@<TRIPOS>BOND
     1    1    2 1   
     2    2    3 ar  
     3    2    5 ar  
     4    3    4 ar  
     5    3   32 1   
     6    4    7 ar  
     7    4   33 1   
     8    5    6 ar  
     9    5   34 1   
    10    6    7 ar  
    11    6   35 1   
    12    7    8 1   
    13    8    9 1   
    14    8   36 1   
    15    8   37 1   
    16    9   10 2   
    17    9   11 1   
    18   11   12 1   
    19   11   38 1   
    20   11   48 1   
    21   12   13 2   
    22   12   14 1   
    23   14   15 1   
    24   14   39 1   
    25   15   16 ar  
    26   15   19 ar  
    27   16   17 ar  
    28   16   40 1   
    29   17   18 1   
    30   17   21 ar  
    31   19   20 ar  
    32   19   41 1   
    33   20   21 ar  
    34   20   42 1   
    35   21   22 1   
    36   22   23 1   
    37   23   24 ar  
    38   23   28 ar  
    39   24   25 ar  
    40   24   43 1   
    41   25   26 ar  
    42   25   44 1   
    43   26   27 ar  
    44   27   28 ar  
    45   27   29 1   
    46   28   31 1   
    47   29   30 1   
    48   29   45 1   
    49   30   31 2   
    50   30   46 1   
    51   31   47 1   
@<TRIPOS>SUBSTRUCTURE
     1 320         1 TEMP              0 ****  ****    0 ROOT
