@<TRIPOS>MOLECULE
320
   47    39     1     0     0
SMALL
bcc


@<TRIPOS>ATOM
      1 F31        -5.2170   -6.0710   -3.6740 f         1 320     -0.099000
      2 C28        -4.6860   -4.8610   -3.8880 c2        1 320      0.103000
      3 C29        -3.3280   -4.6590   -3.7030 c2        1 320     -0.160000
      4 C30        -2.7700   -3.4190   -3.9670 c1        1 320     -0.108000
      5 C27        -5.4870   -3.8230   -4.3370 c1        1 320     -0.161000
      6 C26        -4.9290   -2.5830   -4.6010 c1        1 320     -0.088000
      7 C23        -3.5700   -2.3800   -4.4170 c1        1 320     -0.114000
      8 C22        -2.9470   -1.0560   -4.7940 c3        1 320     -0.143000
      9 C21        -2.6570   -0.2610   -3.5430 c2        1 320      0.320000
     10 O25        -3.5160   -0.1320   -2.6930 o         1 320     -0.360000
     11 N20        -1.4030    0.3800   -3.3860 n         1 320     -0.380000
     12 C19        -0.9510    0.7460   -2.0940 c2        1 320      0.416000
     13 O24        -1.6590    0.5510   -1.1250 o         1 320     -0.377000
     14 N18         0.3520    1.2780   -1.9240 n         1 320     -0.310000
     15 C14         0.8280    1.5800   -0.6270 c2        1 320      0.094000
     16 C15         0.5630    2.8190   -0.0640 c2        1 320     -0.206000
     17 C16         0.9430    3.0830    1.2410 c1        1 320      0.110000
     18 F17         0.7340    4.2960    1.7660 f         1 320     -0.089000
     19 C13         1.4730    0.6060    0.1180 c1        1 320     -0.148000
     20 C12         1.8530    0.8700    1.4230 c1        1 320     -0.119000
     21 C11         1.5880    2.1080    1.9850 c2        1 320      0.001000
     22 O10         1.8860    2.3420    3.3340 os        1 320     -0.153000
     23 C6          3.2140    1.9760    3.5900 c2        1 320      0.122000
     24 C5          3.8980    3.1550    3.6810 c2        1 320     -0.210000
     25 C4          4.6170    3.4530    4.8310 c1        1 320     -0.045000
     26 N3          4.6410    2.5700    5.8690 n1        1 320     -0.144000
     27 C2          3.9480    1.3760    5.7790 c1        1 320      0.035000
     28 C1          3.2380    1.0800    4.6450 c1        1 320     -0.131000
     29 N9          3.8010    0.3220    6.6640 n1        1 320     -0.201000
     30 C8          3.0020   -0.6180    6.0740 c1        1 320     -0.075000
     31 C7          2.6500   -0.1550    4.8230 c1        1 320     -0.184000
     32 H29        -2.7640   -5.3900   -3.3860 ha        1 320      0.156000
     33 H30        -1.8130   -3.2760   -3.8370 ha        1 320      0.140000
     34 H27        -6.4440   -3.9660   -4.4670 ha        1 320      0.156000
     35 H26        -5.4930   -1.8510   -4.9180 ha        1 320      0.146000
     36 H22        -3.5650   -0.5560   -5.3630 hc        1 320      0.130000
     37 H22A       -2.1140   -1.2150   -5.2800 hc        1 320      0.130000
     38 HN20       -0.8880    0.5600   -4.1170 hn        1 320      0.261000
     39 HN18        0.8760    1.4400   -2.6510 hn        1 320      0.270000
     40 H15         0.1400    3.5170   -0.6000 ha        1 320      0.156000
     41 H13         1.6600   -0.2670   -0.2780 ha        1 320      0.180000
     42 H12         2.3070    0.1830    1.9470 ha        1 320      0.161000
     43 H5          3.8820    3.7870    2.9370 ha        1 320      0.159000
     44 H4          5.1060    4.2950    4.8950 ha        1 320      0.163000
     45 HN9         4.1720    0.2640    7.4950 DU        1 320      0.200333
     46 H8          2.7480   -1.4790    6.4600 DU        1 320      0.200333
     47 H7          2.0830   -0.6190    4.1770 DU        1 320      0.200333
@<TRIPOS>BOND
     1    1    2 1   
     2    2    3 1   
     3    2    5 1   
     4    3    4 1   
     5    3   32 1   
     6    4   33 1   
     7    5   34 1   
     8    6    7 1   
     9    6   35 1   
    10    7    8 1   
    11    8    9 1   
    12    8   36 1   
    13    8   37 1   
    14    9   10 1   
    15    9   11 1   
    16   11   12 1   
    17   11   38 1   
    18   12   13 1   
    19   12   14 1   
    20   14   15 1   
    21   14   39 1   
    22   15   16 1   
    23   15   19 1   
    24   16   17 1   
    25   16   40 1   
    26   17   21 1   
    27   19   41 1   
    28   20   21 1   
    29   20   42 1   
    30   21   22 1   
    31   22   23 1   
    32   23   24 1   
    33   23   28 1   
    34   24   25 1   
    35   24   43 1   
    36   25   44 1   
    37   26   27 1   
    38   29   30 1   
    39   30   31 1   
@<TRIPOS>SUBSTRUCTURE
     1 320         1 TEMP              0 ****  ****    0 ROOT
