@<TRIPOS>MOLECULE
320
   47    50     1     0     0
SMALL
bcc


@<TRIPOS>ATOM
      1 F31         7.5400   -0.1670    3.5280 f         1 320     -0.133900
      2 C28         7.1390   -0.3730    2.2520 ca        1 320      0.133900
      3 C29         6.5130   -1.5850    1.9010 ca        1 320     -0.163500
      4 C30         6.1030   -1.7860    0.5880 ca        1 320     -0.102000
      5 C27         7.3490    0.6220    1.2800 ca        1 320     -0.163500
      6 C26         6.9330    0.4000   -0.0280 ca        1 320     -0.102000
      7 C23         6.3040   -0.7990   -0.3850 ca        1 320     -0.118300
      8 C22         5.8810   -1.0320   -1.7900 c3        1 320     -0.113100
      9 C21         4.5180   -0.4450   -2.1300 c         1 320      0.675100
     10 O25         4.3240    0.1410   -3.2010 o         1 320     -0.522100
     11 N20         3.5110   -0.6280   -1.1740 n         1 320     -0.616500
     12 C19         2.1540   -0.2760   -1.3960 c         1 320      0.786100
     13 O24         1.7150   -0.1230   -2.5500 o         1 320     -0.555100
     14 N18         1.3490   -0.1280   -0.2500 n         1 320     -0.483100
     15 C14        -0.0330    0.1150   -0.2530 ca        1 320      0.106600
     16 C15        -0.7230    0.6060   -1.3770 ca        1 320     -0.189000
     17 C16        -2.1060    0.8480   -1.3030 ca        1 320      0.164900
     18 F17        -2.7570    1.3180   -2.3880 f         1 320     -0.115900
     19 C13        -0.7490   -0.1190    0.9500 ca        1 320     -0.195000
     20 C12        -2.1100    0.1330    1.0230 ca        1 320     -0.089000
     21 C11        -2.7970    0.6150   -0.0950 ca        1 320      0.016100
     22 O10        -4.1300    1.0100   -0.0060 os        1 320     -0.225200
     23 C6         -5.0640   -0.0060    0.1270 ca        1 320      0.202100
     24 C5         -4.7820   -1.3680    0.0640 ca        1 320     -0.348300
     25 C4         -5.8440   -2.2970    0.2040 ca        1 320      0.442200
     26 N3         -7.1300   -1.9900    0.3980 nb        1 320     -0.690000
     27 C2         -7.3950   -0.6470    0.4580 ca        1 320      0.439800
     28 C1         -6.3930    0.4050    0.3290 ca        1 320     -0.219100
     29 N9         -8.6330   -0.0220    0.6510 na        1 320     -0.285100
     30 C8         -8.4350    1.3630    0.6370 cc        1 320     -0.119100
     31 C7         -7.0880    1.6590    0.4470 cd        1 320     -0.149200
     32 H29         6.3620   -2.3610    2.6660 ha        1 320      0.155500
     33 H30         5.6260   -2.7390    0.3110 ha        1 320      0.145000
     34 H27         7.8430    1.5640    1.5620 ha        1 320      0.155500
     35 H26         7.1020    1.1770   -0.7910 ha        1 320      0.145000
     36 H22         6.6230   -0.5710   -2.4980 hc        1 320      0.090200
     37 H22A        5.8380   -2.1340   -2.0130 hc        1 320      0.090200
     38 HN20        3.7920   -0.9570   -0.2770 hn        1 320      0.320500
     39 HN18        1.7450   -0.3090    0.6450 hn        1 320      0.318500
     40 H15        -0.2060    0.8040   -2.3330 ha        1 320      0.197000
     41 H13        -0.2310   -0.4980    1.8450 ha        1 320      0.137000
     42 H12        -2.6620   -0.0450    1.9590 ha        1 320      0.156000
     43 H5         -3.7590   -1.7290   -0.0980 ha        1 320      0.153000
     44 H4         -5.6250   -3.3800    0.1500 h4        1 320      0.022100
     45 HN9        -9.4960   -0.4890    0.7510 hn        1 320      0.309700
     46 H8         -9.2830    2.0380    0.7680 h4        1 320      0.169000
     47 H7         -6.6320    2.6430    0.3910 ha        1 320      0.168000
@<TRIPOS>BOND
     1    1    2 1   
     2    2    3 ar  
     3    2    5 ar  
     4    3    4 ar  
     5    3   32 1   
     6    4    7 ar  
     7    4   33 1   
     8    5    6 ar  
     9    5   34 1   
    10    6    7 ar  
    11    6   35 1   
    12    7    8 1   
    13    8    9 1   
    14    8   36 1   
    15    8   37 1   
    16    9   10 2   
    17    9   11 1   
    18   11   12 1   
    19   11   38 1   
    20   12   13 2   
    21   12   14 1   
    22   14   15 1   
    23   14   39 1   
    24   15   16 ar  
    25   15   19 ar  
    26   16   17 ar  
    27   16   40 1   
    28   17   18 1   
    29   17   21 ar  
    30   19   20 ar  
    31   19   41 1   
    32   20   21 ar  
    33   20   42 1   
    34   21   22 1   
    35   22   23 1   
    36   23   24 ar  
    37   23   28 ar  
    38   24   25 ar  
    39   24   43 1   
    40   25   26 ar  
    41   25   44 1   
    42   26   27 ar  
    43   27   28 ar  
    44   27   29 1   
    45   28   31 1   
    46   29   30 1   
    47   29   45 1   
    48   30   31 2   
    49   30   46 1   
    50   31   47 1   
@<TRIPOS>SUBSTRUCTURE
     1 320         1 TEMP              0 ****  ****    0 ROOT
