@<TRIPOS>MOLECULE
321
   59    62     1     0     0
SMALL
bcc


@<TRIPOS>ATOM
      1 O31         0.6600   -0.2840    0.3530 o         1 321     -0.645300
      2 S35         2.0150    0.0390    0.1680 s6        1 321      1.471900
      3 O30         2.7880    0.2810    1.3190 o         1 321     -0.645300
      4 C19         2.7390   -1.2140   -0.7160 c3        1 321     -0.375300
      5 N26         2.1880    1.3360   -0.8130 nh        1 321     -0.780500
      6 C8          1.4750    1.6440   -1.9810 ca        1 321      0.142600
      7 C3          0.1310    1.2410   -2.1620 ca        1 321     -0.113000
      8 C5          2.0920    2.3870   -3.0070 ca        1 321     -0.052000
      9 C9          1.4180    2.7120   -4.1830 ca        1 321     -0.388500
     10 S34         2.2080    3.6330   -5.3380 sy        1 321      1.398300
     11 O28         3.5740    3.3490   -5.3510 o         1 321     -0.648800
     12 O29         1.8270    4.9810   -5.2720 o         1 321     -0.648800
     13 C11         1.4520    2.9960   -6.7400 c3        1 321     -0.422900
     14 C14        -0.0430    2.9350   -6.6050 ce        1 321      0.558600
     15 N24        -0.6670    2.5880   -5.5210 nf        1 321     -0.539100
     16 C7          0.0800    2.2770   -4.3610 ca        1 321      0.210400
     17 C2         -0.5470    1.5460   -3.3330 ca        1 321     -0.083000
     18 C13        -0.7930    3.3100   -7.8140 cc        1 321     -0.374800
     19 C15        -0.9120    4.6130   -8.2360 cd        1 321      0.145500
     20 O32        -0.3490    5.6880   -7.6280 oh        1 321     -0.462100
     21 C16        -1.4510    2.2310   -8.5530 c         1 321      0.705700
     22 O27        -1.3690    1.0250   -8.2680 o         1 321     -0.614500
     23 N25        -2.2000    2.6430   -9.7070 n         1 321     -0.186800
     24 C21        -2.9740    1.6260  -10.4420 c3        1 321      0.101000
     25 C20        -4.4780    1.6910  -10.1940 c3        1 321     -0.096400
     26 C22        -5.1920    0.5770  -10.9480 c3        1 321     -0.065700
     27 C18        -5.0320   -0.7570  -10.2490 c3        1 321     -0.092600
     28 C17        -6.6620    0.9160  -11.0950 c3        1 321     -0.092600
     29 N23        -2.3190    3.8960  -10.0920 nc        1 321     -0.406300
     30 C12        -1.7080    4.8860   -9.4380 cd        1 321      0.416200
     31 C10        -1.8640    6.2400   -9.9350 cd        1 321     -0.157000
     32 C4         -0.9580    7.2800   -9.7940 cc        1 321     -0.116000
     33 S33        -3.2230    6.7370  -10.8010 ss        1 321      0.075200
     34 C6         -2.6660    8.2890  -10.9990 cd        1 321     -0.176100
     35 C1         -1.4290    8.4740  -10.4150 cc        1 321     -0.161000
     36 H19         3.8370   -1.0730   -0.8730 h1        1 321      0.121033
     37 H19A        2.6280   -2.1880   -0.1720 h1        1 321      0.121033
     38 H19B        2.2920   -1.3780   -1.7270 h1        1 321      0.121033
     39 HN26        2.8960    2.0070   -0.6030 hn        1 321      0.460800
     40 H3         -0.4000    0.6780   -1.3700 ha        1 321      0.184000
     41 H5          3.1410    2.7220   -2.8930 ha        1 321      0.156000
     42 H11         1.8120    1.9590   -6.9920 h1        1 321      0.146200
     43 H11A        1.7180    3.6170   -7.6390 h1        1 321      0.146200
     44 H2         -1.5930    1.2130   -3.4540 ha        1 321      0.170000
     45 HO32        0.0980    5.4110   -6.8040 ho        1 321      0.457000
     46 H21        -2.7710    1.7530  -11.5430 h1        1 321      0.079700
     47 H21A       -2.5760    0.6210  -10.1190 h1        1 321      0.079700
     48 H20        -4.8750    2.6830  -10.5350 hc        1 321      0.056200
     49 H20A       -4.6950    1.5980   -9.0980 hc        1 321      0.056200
     50 H22        -4.7440    0.4960  -11.9800 hc        1 321      0.046700
     51 H18        -5.4710   -0.7170   -9.2230 hc        1 321      0.036867
     52 H18A       -3.9540   -1.0310  -10.1600 hc        1 321      0.036867
     53 H18B       -5.5550   -1.5580  -10.8250 hc        1 321      0.036867
     54 H17        -7.1350    1.0480  -10.0920 hc        1 321      0.036867
     55 H17A       -7.1950    0.0950  -11.6320 hc        1 321      0.036867
     56 H17B       -6.7900    1.8610  -11.6750 hc        1 321      0.036867
     57 H4         -0.0030    7.2140   -9.2670 ha        1 321      0.168000
     58 H6         -3.2280    9.0560  -11.5320 h4        1 321      0.173000
     59 H1         -0.8650    9.4080  -10.4150 ha        1 321      0.157000
@<TRIPOS>BOND
     1    1    2 2   
     2    2    3 2   
     3    2    4 1   
     4    2    5 1   
     5    4   36 1   
     6    4   37 1   
     7    4   38 1   
     8    5    6 1   
     9    5   39 1   
    10    6    7 ar  
    11    6    8 ar  
    12    7   17 ar  
    13    7   40 1   
    14    8    9 ar  
    15    8   41 1   
    16    9   10 1   
    17    9   16 ar  
    18   10   11 2   
    19   10   12 2   
    20   10   13 1   
    21   13   14 1   
    22   13   42 1   
    23   13   43 1   
    24   14   15 2   
    25   14   18 1   
    26   15   16 1   
    27   16   17 ar  
    28   17   44 1   
    29   18   19 2   
    30   18   21 1   
    31   19   20 1   
    32   19   30 1   
    33   20   45 1   
    34   21   22 2   
    35   21   23 1   
    36   23   24 1   
    37   23   29 1   
    38   24   25 1   
    39   24   46 1   
    40   24   47 1   
    41   25   26 1   
    42   25   48 1   
    43   25   49 1   
    44   26   27 1   
    45   26   28 1   
    46   26   50 1   
    47   27   51 1   
    48   27   52 1   
    49   27   53 1   
    50   28   54 1   
    51   28   55 1   
    52   28   56 1   
    53   29   30 2   
    54   30   31 1   
    55   31   32 2   
    56   31   33 1   
    57   32   35 1   
    58   32   57 1   
    59   33   34 1   
    60   34   35 2   
    61   34   58 1   
    62   35   59 1   
@<TRIPOS>SUBSTRUCTURE
     1 321         1 TEMP              0 ****  ****    0 ROOT
