@<TRIPOS>MOLECULE
321
   60    63     1     0     0
SMALL
bcc


@<TRIPOS>ATOM
      1 O31         0.8030   -1.1650   -0.2840 o         1 321     -0.560300
      2 S35         2.0760   -0.6710   -0.4620 s6        1 321      1.413900
      3 O30         3.0060   -0.6970    0.5570 o         1 321     -0.560300
      4 C19         2.7270   -0.9610   -1.9340 c3        1 321     -0.470300
      5 N26         1.7490    1.2040   -0.5380 n4        1 321     -0.563300
      6 C8          1.1540    1.6310   -1.7920 ca        1 321     -0.120400
      7 C3         -0.2240    1.3930   -2.0320 ca        1 321     -0.064000
      8 C5          1.9150    2.3070   -2.7490 ca        1 321      0.012000
      9 C9          1.3580    2.6890   -3.9720 ca        1 321     -0.393500
     10 S34         2.4140    3.4600   -5.0560 sy        1 321      1.387300
     11 O28         3.4640    2.5750   -5.3120 o         1 321     -0.631800
     12 O29         2.7500    4.7130   -4.5500 o         1 321     -0.631800
     13 C11         1.4480    3.6340   -6.4480 c3        1 321     -0.452900
     14 C14        -0.0020    3.2690   -6.4330 ce        1 321      0.682600
     15 N24        -0.6510    2.7500   -5.4270 nf        1 321     -0.598100
     16 C7         -0.0060    2.4250   -4.2310 ca        1 321      0.321400
     17 C2         -0.7880    1.7800   -3.2280 ca        1 321     -0.096000
     18 C13        -0.7130    3.5090   -7.6960 cc        1 321     -0.361800
     19 C15        -0.8310    4.7540   -8.2780 cd        1 321      0.158500
     20 O32        -0.2370    5.8200   -7.6810 oh        1 321     -0.489100
     21 C16        -1.3560    2.3510   -8.3290 c         1 321      0.701700
     22 O27        -1.2460    1.1830   -7.9250 o         1 321     -0.603500
     23 N25        -2.1130    2.6290   -9.5200 n         1 321     -0.174800
     24 C21        -2.8780    1.5260  -10.1390 c3        1 321      0.096000
     25 C20        -4.3850    1.6220   -9.9240 c3        1 321     -0.096400
     26 C22        -5.0900    0.4290  -10.5590 c3        1 321     -0.065700
     27 C18        -4.9320   -0.8200   -9.7180 c3        1 321     -0.093600
     28 C17        -6.5590    0.7470  -10.7530 c3        1 321     -0.093600
     29 N23        -2.2310    3.8240  -10.0460 nc        1 321     -0.355300
     30 C12        -1.6150    4.8800   -9.5030 cd        1 321      0.350200
     31 C10        -1.7360    6.1740  -10.1460 cd        1 321     -0.214000
     32 C4         -0.6740    6.9890  -10.5250 cc        1 321     -0.152000
     33 S33        -3.2040    6.8530  -10.5830 ss        1 321      0.139200
     34 C6         -2.5130    8.2090  -11.2370 cd        1 321     -0.172100
     35 C1         -1.1320    8.1800  -11.1550 cc        1 321     -0.151000
     36 H19         3.8530   -0.9010   -1.9640 h1        1 321      0.183367
     37 H19A        2.4950   -2.0040   -2.3090 h1        1 321      0.183367
     38 H19B        2.3890   -0.3090   -2.7910 h1        1 321      0.183367
     39 HN26        2.6090    1.7290   -0.3730 hn        1 321      0.460300
     40 H3         -0.8480    0.8860   -1.2740 ha        1 321      0.172000
     41 H5          2.9800    2.5470   -2.5620 ha        1 321      0.160000
     42 H11         1.4960    4.7150   -6.7930 h1        1 321      0.176200
     43 H11A        1.9100    3.0480   -7.3020 h1        1 321      0.176200
     44 H2         -1.8600    1.5870   -3.4190 ha        1 321      0.194000
     45 HO32       -0.4720    6.6340   -8.1650 ho        1 321      0.469000
     46 H21        -2.6550    1.5210  -11.2450 h1        1 321      0.086700
     47 H21A       -2.4860    0.5690   -9.6910 h1        1 321      0.086700
     48 H20        -4.6220    1.6550   -8.8290 hc        1 321      0.056200
     49 H20A       -4.7750    2.5680  -10.3850 hc        1 321      0.056200
     50 H22        -4.6330    0.2390  -11.5720 hc        1 321      0.050700
     51 H18        -5.3740   -0.6690   -8.7030 hc        1 321      0.039200
     52 H18A       -5.4550   -1.6780  -10.2050 hc        1 321      0.039200
     53 H18B       -3.8550   -1.0860   -9.5980 hc        1 321      0.039200
     54 H17        -7.0850   -0.1290  -11.2050 hc        1 321      0.039200
     55 H17A       -7.0410    0.9830   -9.7740 hc        1 321      0.039200
     56 H17B       -6.6850    1.6240  -11.4320 hc        1 321      0.039200
     57 H4          0.3830    6.7490  -10.3870 ha        1 321      0.157000
     58 H6         -3.0930    9.0180  -11.6830 h4        1 321      0.187000
     59 H1         -0.4630    8.9600  -11.5270 ha        1 321      0.168000
     60 H262        1.1030    1.4530    0.2170 hn        1 321      0.460300
@<TRIPOS>BOND
     1    1    2 2   
     2    2    3 2   
     3    2    4 1   
     4    2    5 1   
     5    4   36 1   
     6    4   37 1   
     7    4   38 1   
     8    5    6 1   
     9    5   39 1   
    10    5   60 1   
    11    6    7 ar  
    12    6    8 ar  
    13    7   17 ar  
    14    7   40 1   
    15    8    9 ar  
    16    8   41 1   
    17    9   10 1   
    18    9   16 ar  
    19   10   11 2   
    20   10   12 2   
    21   10   13 1   
    22   13   14 1   
    23   13   42 1   
    24   13   43 1   
    25   14   15 2   
    26   14   18 1   
    27   15   16 1   
    28   16   17 ar  
    29   17   44 1   
    30   18   19 2   
    31   18   21 1   
    32   19   20 1   
    33   19   30 1   
    34   20   45 1   
    35   21   22 2   
    36   21   23 1   
    37   23   24 1   
    38   23   29 1   
    39   24   25 1   
    40   24   46 1   
    41   24   47 1   
    42   25   26 1   
    43   25   48 1   
    44   25   49 1   
    45   26   27 1   
    46   26   28 1   
    47   26   50 1   
    48   27   51 1   
    49   27   52 1   
    50   27   53 1   
    51   28   54 1   
    52   28   55 1   
    53   28   56 1   
    54   29   30 2   
    55   30   31 1   
    56   31   32 2   
    57   31   33 1   
    58   32   35 1   
    59   32   57 1   
    60   33   34 1   
    61   34   35 2   
    62   34   58 1   
    63   35   59 1   
@<TRIPOS>SUBSTRUCTURE
     1 321         1 TEMP              0 ****  ****    0 ROOT
