@<TRIPOS>MOLECULE
321
   59    62     1     0     0
SMALL
bcc


@<TRIPOS>ATOM
      1 O31         6.9900   -1.6230    1.5180 o         1 321     -0.648300
      2 S35         7.3300   -0.7370    0.4820 s6        1 321      1.470900
      3 O30         8.5780   -0.0900    0.5720 o         1 321     -0.648300
      4 C19         7.2710   -1.5920   -0.9820 c3        1 321     -0.374300
      5 N26         6.1950    0.4200    0.2880 nh        1 321     -0.781500
      6 C8          4.8000    0.2690    0.3020 ca        1 321      0.138600
      7 C3          4.1650   -0.7000    1.1170 ca        1 321     -0.114000
      8 C5          3.9910    1.1000   -0.4940 ca        1 321     -0.056000
      9 C9          2.5980    0.9820   -0.5080 ca        1 321     -0.377500
     10 S34         1.7770    2.0710   -1.4820 sy        1 321      1.389300
     11 O28         2.2880    2.0310   -2.7860 o         1 321     -0.647300
     12 O29         1.7300    3.3340   -0.8840 o         1 321     -0.647300
     13 C11         0.1920    1.4150   -1.5120 c3        1 321     -0.417900
     14 C14        -0.2050    0.4060   -0.4830 ce        1 321      0.599600
     15 N24         0.5900   -0.2220    0.3270 nf        1 321     -0.564100
     16 C7          1.9820   -0.0080    0.2880 ca        1 321      0.227400
     17 C2          2.7880   -0.8370    1.1010 ca        1 321     -0.088000
     18 C13        -1.6510    0.1180   -0.4390 cc        1 321     -0.311800
     19 C15        -2.5910    1.0500   -0.0700 cd        1 321      0.126500
     20 O32        -2.1860    2.3160    0.2250 oh        1 321     -0.477100
     21 C16        -2.0750   -1.2450   -0.7720 c         1 321      0.698700
     22 O27        -1.3250   -2.1440   -1.1820 o         1 321     -0.596500
     23 N25        -3.4860   -1.5120   -0.6390 n         1 321     -0.186800
     24 C21        -3.9600   -2.8940   -0.8390 c3        1 321      0.098000
     25 C20        -4.3100   -3.6220    0.4560 c3        1 321     -0.096400
     26 C22        -4.7380   -5.0540    0.1640 c3        1 321     -0.064700
     27 C18        -3.5450   -5.9390   -0.1320 c3        1 321     -0.093100
     28 C17        -5.5190   -5.6070    1.3390 c3        1 321     -0.093100
     29 N23        -4.3660   -0.6150   -0.2600 nc        1 321     -0.376300
     30 C12        -3.9930    0.6410    0.0020 cd        1 321      0.348200
     31 C10        -5.0100    1.6090    0.3700 cd        1 321     -0.185000
     32 C4         -5.2090    2.8440   -0.2340 cc        1 321     -0.154000
     33 S33        -6.1370    1.3400    1.5820 ss        1 321      0.114200
     34 C6         -6.8840    2.8060    1.3700 cd        1 321     -0.180100
     35 C1         -6.3010    3.5430    0.3570 cc        1 321     -0.153000
     36 H19         6.2590   -1.9910   -1.2380 h1        1 321      0.121033
     37 H19A        7.6060   -0.9900   -1.8620 h1        1 321      0.121033
     38 H19B        7.9490   -2.4830   -0.9400 h1        1 321      0.121033
     39 HN26        6.4820    1.3580    0.1050 hn        1 321      0.461800
     40 H3          4.7630   -1.3580    1.7760 ha        1 321      0.181000
     41 H5          4.4570    1.8730   -1.1330 ha        1 321      0.150000
     42 H11        -0.5460    2.2690   -1.4330 h1        1 321      0.151200
     43 H11A       -0.0060    0.9440   -2.5190 h1        1 321      0.151200
     44 H2          2.3150   -1.6060    1.7370 ha        1 321      0.166000
     45 HO32       -2.9450    2.8230    0.5640 ho        1 321      0.453000
     46 H21        -4.8650   -2.8670   -1.5100 h1        1 321      0.081700
     47 H21A       -3.1350   -3.4450   -1.3760 h1        1 321      0.081700
     48 H20        -3.4280   -3.6300    1.1480 hc        1 321      0.055700
     49 H20A       -5.1460   -3.0850    0.9770 hc        1 321      0.055700
     50 H22        -5.4140   -5.0520   -0.7390 hc        1 321      0.046700
     51 H18        -3.8840   -6.9810   -0.3510 hc        1 321      0.037200
     52 H18A       -2.9780   -5.5590   -1.0150 hc        1 321      0.037200
     53 H18B       -2.8530   -5.9710    0.7440 hc        1 321      0.037200
     54 H17        -6.4400   -5.0030    1.5170 hc        1 321      0.037200
     55 H17A       -5.8200   -6.6640    1.1380 hc        1 321      0.037200
     56 H17B       -4.8960   -5.5870    2.2660 hc        1 321      0.037200
     57 H4         -4.6230    3.2360   -1.0690 ha        1 321      0.160000
     58 H6         -7.7370    3.1300    1.9660 h4        1 321      0.179000
     59 H1         -6.6230    4.5350    0.0320 ha        1 321      0.161000
@<TRIPOS>BOND
     1    1    2 2   
     2    2    3 2   
     3    2    4 1   
     4    2    5 1   
     5    4   36 1   
     6    4   37 1   
     7    4   38 1   
     8    5    6 1   
     9    5   39 1   
    10    6    7 ar  
    11    6    8 ar  
    12    7   17 ar  
    13    7   40 1   
    14    8    9 ar  
    15    8   41 1   
    16    9   10 1   
    17    9   16 ar  
    18   10   11 2   
    19   10   12 2   
    20   10   13 1   
    21   13   14 1   
    22   13   42 1   
    23   13   43 1   
    24   14   15 2   
    25   14   18 1   
    26   15   16 1   
    27   16   17 ar  
    28   17   44 1   
    29   18   19 2   
    30   18   21 1   
    31   19   20 1   
    32   19   30 1   
    33   20   45 1   
    34   21   22 2   
    35   21   23 1   
    36   23   24 1   
    37   23   29 1   
    38   24   25 1   
    39   24   46 1   
    40   24   47 1   
    41   25   26 1   
    42   25   48 1   
    43   25   49 1   
    44   26   27 1   
    45   26   28 1   
    46   26   50 1   
    47   27   51 1   
    48   27   52 1   
    49   27   53 1   
    50   28   54 1   
    51   28   55 1   
    52   28   56 1   
    53   29   30 2   
    54   30   31 1   
    55   31   32 2   
    56   31   33 1   
    57   32   35 1   
    58   32   57 1   
    59   33   34 1   
    60   34   35 2   
    61   34   58 1   
    62   35   59 1   
@<TRIPOS>SUBSTRUCTURE
     1 321         1 TEMP              0 ****  ****    0 ROOT
