@<TRIPOS>MOLECULE
321
   59    53     1     0     0
SMALL
bcc


@<TRIPOS>ATOM
      1 O31         7.3160    0.4650    3.9540 o         1 321     -0.927500
      2 S35         7.2560   -0.9320    4.2640 ss        1 321      2.826000
      3 O30         7.7140   -1.5090    3.0360 o         1 321     -0.927500
      4 C19         8.3410   -1.3410    5.6130 c2        1 321     -0.953000
      5 N26         5.7190   -1.4010    4.6070 n2        1 321     -0.832000
      6 C8          4.6680   -1.1440    3.6710 c2        1 321      0.053000
      7 C3          4.8530   -1.4330    2.3270 c2        1 321     -0.113000
      8 C5          3.4200   -0.7170    4.1270 c1        1 321     -0.053000
      9 C9          2.3510   -0.5790    3.2230 c1        1 321     -0.823000
     10 S34         0.8200    0.0030    3.7720 s4        1 321      2.073800
     11 O28         1.0290    1.2690    4.4220 o         1 321     -0.535400
     12 O29         0.2910   -0.9350    4.7290 o         1 321     -0.535400
     13 C11        -0.3490    0.1790    2.5140 c2        1 321     -0.892000
     14 C14         0.1470   -0.2440    1.1280 c2        1 321      0.153000
     15 N24         1.3510   -1.1000    1.0010 n1        1 321     -0.146000
     16 C7          2.5360   -0.8660    1.8880 c1        1 321      0.088000
     17 C2          3.7940   -1.2960    1.4310 c2        1 321     -0.093000
     18 C13        -0.6680    0.1340   -0.1320 c2        1 321     -0.218000
     19 C15        -0.5340    1.4540   -0.7150 c1        1 321      0.190000
     20 O32         0.4630    2.3410   -0.2420 o         1 321     -0.208000
     21 C16        -1.6600   -0.8250   -0.6960 c2        1 321      0.335000
     22 O27        -1.8170   -1.9130   -0.1790 o         1 321     -0.348000
     23 N25        -2.4480   -0.4530   -1.8670 n         1 321     -0.214000
     24 C21        -3.2160   -1.4610   -2.5740 c3        1 321     -0.017000
     25 C20        -4.6760   -0.9800   -2.7290 c3        1 321     -0.173000
     26 C22        -5.3010   -1.6310   -3.9610 c3        1 321     -0.106000
     27 C18        -6.4210   -2.5570   -3.5300 c3        1 321     -0.210000
     28 C17        -5.8550   -0.5620   -4.8670 c3        1 321     -0.210000
     29 N23        -2.3920    0.9050   -2.3800 n2        1 321      0.045000
     30 C12        -1.4000    1.8460   -1.8580 c2        1 321     -0.110000
     31 C10        -1.3360    3.2500   -2.4040 c2        1 321     -0.374000
     32 C4         -0.6860    3.6600   -3.6410 c1        1 321     -0.150000
     33 S33        -1.9650    4.5110   -1.7570 ss        1 321      0.650000
     34 C6         -1.6560    5.7170   -2.6810 c1        1 321     -0.448000
     35 C1         -0.8890    5.2250   -3.8170 c1        1 321     -0.154000
     36 H19         9.2560   -1.0540    5.3960 ha        1 321      0.160000
     37 H19A        8.0400   -0.8840    6.4240 ha        1 321      0.160000
     38 H19B        8.3290   -2.3120    5.7600 ha        1 321      0.160000
     39 HN26        5.5370   -1.8310    5.3940 hn        1 321      0.257000
     40 H3          5.7230   -1.7470    2.0100 ha        1 321      0.180000
     41 H5          3.2920   -0.5010    5.0770 ha        1 321      0.152000
     42 H11        -1.1730   -0.3120    2.6950 ha        1 321      0.198000
     43 H11A       -0.6800    1.1000    2.5150 ha        1 321      0.198000
     44 H2          3.9260   -1.5010    0.4820 ha        1 321      0.163000
     45 HO32        0.0780    3.0290    0.1640 ho        1 321      0.247000
     46 H21        -2.8240   -1.6080   -3.4640 h1        1 321      0.122000
     47 H21A       -3.2000   -2.2950   -2.0700 h1        1 321      0.122000
     48 H20        -5.1880   -1.2310   -1.9330 hc        1 321      0.094000
     49 H20A       -4.6900   -0.0070   -2.8320 hc        1 321      0.094000
     50 H22        -4.6240   -2.1410   -4.4370 hc        1 321      0.091000
     51 H18        -6.9750   -2.1090   -2.8550 hc        1 321      0.076167
     52 H18A       -6.9740   -2.7840   -4.3070 hc        1 321      0.076167
     53 H18B       -6.0420   -3.3740   -3.1500 hc        1 321      0.076167
     54 H17        -6.5120   -0.0250   -4.3740 hc        1 321      0.076167
     55 H17A       -6.2900   -0.9830   -5.6420 hc        1 321      0.076167
     56 H17B       -5.1250    0.0160   -5.1750 hc        1 321      0.076167
     57 H4         -0.2020    3.0670   -4.2630 DU        1 321      0.168000
     58 H6         -1.9270    6.6430   -2.5290 DU        1 321      0.168000
     59 H1         -0.5560    5.7650   -4.5600 DU        1 321      0.168000
@<TRIPOS>BOND
     1    1    2 1   
     2    2    3 1   
     3    4   36 1   
     4    4   37 1   
     5    4   38 1   
     6    5    6 1   
     7    5   39 1   
     8    6    7 1   
     9    6    8 1   
    10    7   17 1   
    11    7   40 1   
    12    8   41 1   
    13    9   10 1   
    14    9   16 1   
    15   10   11 1   
    16   10   12 1   
    17   13   14 1   
    18   13   42 1   
    19   13   43 1   
    20   14   15 1   
    21   14   18 1   
    22   16   17 1   
    23   17   44 1   
    24   18   19 1   
    25   18   21 1   
    26   19   30 1   
    27   20   45 1   
    28   21   22 1   
    29   21   23 1   
    30   23   24 1   
    31   23   29 1   
    32   24   25 1   
    33   24   46 1   
    34   24   47 1   
    35   25   26 1   
    36   25   48 1   
    37   25   49 1   
    38   26   27 1   
    39   26   28 1   
    40   26   50 1   
    41   27   51 1   
    42   27   52 1   
    43   27   53 1   
    44   28   54 1   
    45   28   55 1   
    46   28   56 1   
    47   29   30 1   
    48   30   31 1   
    49   31   32 1   
    50   31   33 1   
    51   32   35 1   
    52   33   34 1   
    53   34   35 1   
@<TRIPOS>SUBSTRUCTURE
     1 321         1 TEMP              0 ****  ****    0 ROOT
