@<TRIPOS>MOLECULE
321
   59    62     1     0     0
SMALL
bcc


@<TRIPOS>ATOM
      1 O31         0.4520   -0.4330    0.2350 o         1 321     -0.648300
      2 S35         1.8280   -0.1970    0.0700 s6        1 321      1.470900
      3 O30         2.6050   -0.0730    1.2380 o         1 321     -0.648300
      4 C19         2.4670   -1.4540   -0.8730 c3        1 321     -0.374300
      5 N26         2.1020    1.1310   -0.8390 nu        1 321     -0.781500
      6 C8          1.4410    1.5230   -2.0140 ca        1 321      0.138600
      7 C3          0.0690    1.2420   -2.2230 ca        1 321     -0.115000
      8 C5          2.1350    2.2270   -3.0140 ca        1 321     -0.056000
      9 C9          1.5130    2.6350   -4.1980 ca        1 321     -0.377500
     10 S34         2.4690    3.4950   -5.2730 sy        1 321      1.389300
     11 O28         3.6410    2.7800   -5.5530 o         1 321     -0.647300
     12 O29         2.6470    4.8110   -4.8360 o         1 321     -0.647300
     13 C11         1.5030    3.5100   -6.6910 c3        1 321     -0.417900
     14 C14         0.0470    3.1890   -6.5920 ce        1 321      0.599600
     15 N24        -0.5600    2.6680   -5.5710 nf        1 321     -0.564100
     16 C7          0.1510    2.3220   -4.4050 ca        1 321      0.227400
     17 C2         -0.5560    1.6270   -3.3970 ca        1 321     -0.088000
     18 C13        -0.7280    3.4940   -7.8100 cc        1 321     -0.311800
     19 C15        -0.9140    4.7720   -8.2810 cd        1 321      0.126500
     20 O32        -0.3190    5.8090   -7.6290 oh        1 321     -0.477100
     21 C16        -1.3510    2.3670   -8.5100 c         1 321      0.698700
     22 O27        -1.1960    1.1720   -8.2150 o         1 321     -0.596500
     23 N25        -2.1680    2.7110   -9.6470 n         1 321     -0.186800
     24 C21        -2.9220    1.6360  -10.3190 c3        1 321      0.098000
     25 C20        -4.4150    1.6360  -10.0020 c3        1 321     -0.096400
     26 C22        -5.1060    0.4670  -10.6920 c3        1 321     -0.064700
     27 C18        -4.8470   -0.8360   -9.9660 c3        1 321     -0.093100
     28 C17        -6.5970    0.7290  -10.7770 c3        1 321     -0.093100
     29 N23        -2.3540    3.9410  -10.0670 nc        1 321     -0.376300
     30 C12        -1.7530    4.9680   -9.4620 cd        1 321      0.348200
     31 C10        -1.9510    6.3050   -9.9920 cd        1 321     -0.185000
     32 C4         -0.9430    7.1990  -10.3320 cc        1 321     -0.154000
     33 S33        -3.4650    6.9500  -10.3130 ss        1 321      0.114200
     34 C6         -2.8590    8.3900  -10.8710 cd        1 321     -0.180100
     35 C1         -1.4780    8.4180  -10.8390 cc        1 321     -0.153000
     36 H19         3.5770   -1.3990   -0.9920 h1        1 321      0.121033
     37 H19A        2.0390   -1.5160   -1.9030 h1        1 321      0.121033
     38 H19B        2.2570   -2.4450   -0.3940 h1        1 321      0.121033
     39 HN26        2.8400    1.7520   -0.5830 hn        1 321      0.461800
     40 H3         -0.5200    0.7110   -1.4510 ha        1 321      0.181000
     41 H5          3.2050    2.4700   -2.8740 ha        1 321      0.150000
     42 H11         1.9390    2.8030   -7.4560 h1        1 321      0.151200
     43 H11A        1.5790    4.5370   -7.1600 h1        1 321      0.151200
     44 H2         -1.6230    1.3890   -3.5430 ha        1 321      0.166000
     45 HO32       -0.6250    6.6470   -8.0170 ho        1 321      0.453000
     46 H21        -2.4610    0.6620   -9.9890 h1        1 321      0.081700
     47 H21A       -2.7750    1.7400  -11.4320 h1        1 321      0.081700
     48 H20        -4.5770    1.5650   -8.8950 hc        1 321      0.055700
     49 H20A       -4.8760    2.5970  -10.3520 hc        1 321      0.055700
     50 H22        -4.7040    0.3780  -11.7410 hc        1 321      0.046700
     51 H18        -3.7530   -1.0560   -9.9230 hc        1 321      0.037200
     52 H18A       -5.2370   -0.7880   -8.9210 hc        1 321      0.037200
     53 H18B       -5.3560   -1.6790  -10.4940 hc        1 321      0.037200
     54 H17        -7.0280    0.8660   -9.7560 hc        1 321      0.037200
     55 H17A       -7.1120   -0.1320  -11.2660 hc        1 321      0.037200
     56 H17B       -6.8000    1.6500  -11.3740 hc        1 321      0.037200
     57 H4          0.1280    7.0000  -10.2450 ha        1 321      0.160000
     58 H6         -3.4920    9.2050  -11.2220 h4        1 321      0.179000
     59 H1         -0.8560    9.2570  -11.1610 ha        1 321      0.161000
@<TRIPOS>BOND
     1    1    2 2   
     2    2    3 2   
     3    2    4 1   
     4    2    5 1   
     5    4   36 1   
     6    4   37 1   
     7    4   38 1   
     8    5    6 1   
     9    5   39 1   
    10    6    7 ar  
    11    6    8 ar  
    12    7   17 ar  
    13    7   40 1   
    14    8    9 ar  
    15    8   41 1   
    16    9   10 1   
    17    9   16 ar  
    18   10   11 2   
    19   10   12 2   
    20   10   13 1   
    21   13   14 1   
    22   13   42 1   
    23   13   43 1   
    24   14   15 2   
    25   14   18 1   
    26   15   16 1   
    27   16   17 ar  
    28   17   44 1   
    29   18   19 2   
    30   18   21 1   
    31   19   20 1   
    32   19   30 1   
    33   20   45 1   
    34   21   22 2   
    35   21   23 1   
    36   23   24 1   
    37   23   29 1   
    38   24   25 1   
    39   24   46 1   
    40   24   47 1   
    41   25   26 1   
    42   25   48 1   
    43   25   49 1   
    44   26   27 1   
    45   26   28 1   
    46   26   50 1   
    47   27   51 1   
    48   27   52 1   
    49   27   53 1   
    50   28   54 1   
    51   28   55 1   
    52   28   56 1   
    53   29   30 2   
    54   30   31 1   
    55   31   32 2   
    56   31   33 1   
    57   32   35 1   
    58   32   57 1   
    59   33   34 1   
    60   34   35 2   
    61   34   58 1   
    62   35   59 1   
@<TRIPOS>SUBSTRUCTURE
     1 321         1 TEMP              0 ****  ****    0 ROOT
