@<TRIPOS>MOLECULE
322
   36    36     1     0     0
SMALL
bcc


@<TRIPOS>ATOM
      1 C10         0.6440   -1.6240    3.3160 c2        1 322      0.326000
      2 C8          3.0500   -0.1130    1.7270 c2        1 322     -0.236000
      3 C9          0.6940   -0.7540    2.0230 c3        1 322     -0.124000
      4 C4          1.8640    1.4840    5.9750 ca        1 322     -0.079000
      5 C5          3.0060    2.2290    5.6370 ca        1 322     -0.085000
      6 C6          2.9840    2.9170    4.3040 c3        1 322      0.004000
      7 C3          1.8420    0.7150    7.1280 ca        1 322     -0.005000
      8 C2          0.5920   -1.2930    6.9710 c3        1 322     -0.150000
      9 C1          1.3770   -2.2080    7.7390 c1        1 322     -0.141000
     10 C7          2.9190    1.9380    3.2050 c2        1 322     -0.877000
     11 N1          1.7600    0.2230    1.9860 n         1 322     -0.186000
     12 S1          4.1300    1.1440    2.5270 s4        1 322      1.114000
     13 O1          0.6790    0.0520    7.4890 os        1 322     -0.226000
     14 C11         1.6250    1.4560    2.7730 c2        1 322      0.382000
     15 C12         4.0930    2.2390    6.5130 ca        1 322     -0.128000
     16 C13         4.0880    1.4610    7.6890 ca        1 322     -0.196000
     17 C14         2.9750    0.6560    7.9800 ca        1 322      0.126000
     18 O2          1.6590   -1.6760    4.0700 o         1 322     -0.560500
     19 O3         -0.4370   -2.2260    3.5390 o         1 322     -0.560500
     20 O4          0.5070    1.9560    2.9510 o         1 322     -0.337000
     21 O5          2.9870   -0.1520    9.0800 oh        1 322     -0.274000
     22 H9         -0.2770   -0.1910    1.9480 h1        1 322      0.116500
     23 H9A         0.8030   -1.4440    1.1430 h1        1 322      0.116500
     24 H4          0.9870    1.4880    5.3010 ha        1 322      0.180000
     25 H6          2.0700    3.5740    4.2590 hc        1 322      0.095000
     26 H6A         3.8770    3.5850    4.1820 hc        1 322      0.095000
     27 H2         -0.7730    0.1240    5.0190 ha        1 322      0.001000
     28 H2A        -0.7280    0.2590    4.3550 ha        1 322      0.001000
     29 H1         -0.5180   -1.4870    6.9480 h1        1 322      0.201000
     30 H1A         1.2450   -3.2800    7.5570 ha        1 322      0.076000
     31 H1B         0.9480   -1.3340    5.8730 h1        1 322      0.201000
     32 H7          4.7020    0.4650    3.4840 hs        1 322     -0.156000
     33 HO5         2.3580   -0.9000    8.9040 ho        1 322      0.281000
     34 BR1         5.6180    3.2790    6.1360 br        1 322      0.028000
     35 BR2         5.5800    1.5050    8.8260 br        1 322      0.056000
     36 S2          3.7700   -1.1310    0.8130 s         1 322     -0.079000
@<TRIPOS>BOND
     1    1    3 1   
     2    1   18 1   
     3    1   19 1   
     4    2   11 1   
     5    2   12 1   
     6    2   36 1   
     7    3   11 1   
     8    3   22 1   
     9    3   23 1   
    10    4    5 1   
    11    4    7 1   
    12    4   24 1   
    13    5    6 1   
    14    5   15 1   
    15    6   10 1   
    16    6   25 1   
    17    6   26 1   
    18    7   13 1   
    19    7   17 1   
    20    8    9 1   
    21    8   13 1   
    22    8   29 1   
    23    8   31 1   
    24    9   30 1   
    25   10   12 1   
    26   10   14 1   
    27   11   14 1   
    28   12   32 1   
    29   14   20 1   
    30   15   16 1   
    31   15   34 1   
    32   16   17 1   
    33   16   35 1   
    34   17   21 1   
    35   21   33 1   
    36   27   28 1   
@<TRIPOS>SUBSTRUCTURE
     1 322         1 TEMP              0 ****  ****    0 ROOT
