@<TRIPOS>MOLECULE
322
   36    37     1     0     0
SMALL
bcc


@<TRIPOS>ATOM
      1 C10        -3.6320   -2.0250    0.7710 c         1 322      0.920600
      2 C8         -2.5130   -0.1850   -1.8590 c         1 322      0.407000
      3 C9         -4.1860   -0.9170   -0.1740 c3        1 322     -0.060000
      4 C4          0.4620   -0.8050    0.7610 ca        1 322     -0.140000
      5 C5          0.7640    0.5100    0.3730 ca        1 322     -0.055300
      6 C6         -0.2600    1.5610    0.6400 c3        1 322     -0.019100
      7 C3          1.4060   -1.8110    0.5950 ca        1 322      0.083100
      8 C2         -0.1310   -3.5470    1.1740 c3        1 322      0.127400
      9 C1         -0.0830   -5.0500    1.2970 c3        1 322     -0.097100
     10 C7         -1.3840    1.6470   -0.3750 c3        1 322     -0.100600
     11 N1         -3.2190    0.0330   -0.6900 n         1 322     -0.392400
     12 S1         -1.1230    0.8670   -1.9550 ss        1 322     -0.166700
     13 O1          1.2370   -3.1260    0.9650 os        1 322     -0.373900
     14 C11        -2.6730    1.0230    0.1660 c         1 322      0.702500
     15 C12         2.0140    0.8020   -0.1820 ca        1 322     -0.003900
     16 C13         2.9820   -0.2070   -0.3520 ca        1 322     -0.026900
     17 C14         2.6790   -1.5170    0.0360 ca        1 322      0.124100
     18 O2         -2.4470   -1.9450    1.2020 o         1 322     -0.833300
     19 O3         -4.4420   -2.9440    1.0530 o         1 322     -0.833300
     20 O4         -3.2240    1.4150    1.1990 o         1 322     -0.570500
     21 O5          3.6290   -2.5010   -0.1110 oh        1 322     -0.494100
     22 H9         -4.6840   -1.4190   -1.0490 h1        1 322      0.073700
     23 H9A        -4.9490   -0.3290    0.4080 h1        1 322      0.073700
     24 H4         -0.5420   -1.0380    1.1770 ha        1 322      0.224000
     25 H6         -0.7140    1.3650    1.6550 hc        1 322      0.074200
     26 H6A         0.2370    2.5680    0.7020 hc        1 322      0.074200
     27 H2         -0.7710   -3.2180    0.3120 h1        1 322      0.087200
     28 H2A        -0.5200   -3.0640    2.1090 h1        1 322      0.087200
     29 H1          0.3140   -5.5130    0.3620 hc        1 322      0.040367
     30 H1A         0.5700   -5.3590    2.1480 hc        1 322      0.040367
     31 H1B        -1.1220   -5.4190    1.4770 hc        1 322      0.040367
     32 H7         -1.6020    2.7320   -0.5670 h1        1 322      0.100700
     33 HO5         3.2040   -3.3520    0.0830 ho        1 322      0.441000
     34 BR1         2.4420    2.5480   -0.7380 br        1 322     -0.098100
     35 BR2         4.6500    0.2270   -1.0950 br        1 322     -0.075100
     36 S2         -2.8150   -1.1220   -3.0670 s         1 322     -0.381400
@<TRIPOS>BOND
     1    1    3 1   
     2    1   18 1   
     3    1   19 1   
     4    2   11 1   
     5    2   12 1   
     6    2   36 2   
     7    3   11 1   
     8    3   22 1   
     9    3   23 1   
    10    4    5 ar  
    11    4    7 ar  
    12    4   24 1   
    13    5    6 1   
    14    5   15 ar  
    15    6   10 1   
    16    6   25 1   
    17    6   26 1   
    18    7   13 1   
    19    7   17 ar  
    20    8    9 1   
    21    8   13 1   
    22    8   27 1   
    23    8   28 1   
    24    9   29 1   
    25    9   30 1   
    26    9   31 1   
    27   10   12 1   
    28   10   14 1   
    29   10   32 1   
    30   11   14 1   
    31   14   20 2   
    32   15   16 ar  
    33   15   34 1   
    34   16   17 ar  
    35   16   35 1   
    36   17   21 1   
    37   21   33 1   
@<TRIPOS>SUBSTRUCTURE
     1 322         1 TEMP              0 ****  ****    0 ROOT
