@<TRIPOS>MOLECULE
322
   36    36     1     0     0
SMALL
bcc


@<TRIPOS>ATOM
      1 C10         0.2110   -1.7030    3.0510 c2        1 322      0.341000
      2 C8          2.8540   -0.2770    1.7030 c2        1 322     -0.248000
      3 C9          0.4450   -0.7650    1.8240 c3        1 322     -0.134000
      4 C4          2.3300    0.9840    6.0560 ca        1 322     -0.144000
      5 C5          3.0930    2.1120    5.7060 ca        1 322     -0.049000
      6 C6          2.8970    2.7020    4.3420 c3        1 322     -0.002000
      7 C3          2.4420    0.4360    7.3270 ca        1 322      0.026000
      8 C2          1.1370   -1.4920    6.7950 c3        1 322     -0.116000
      9 C1          0.6430   -2.6830    7.4420 c1        1 322     -0.076000
     10 C7          2.7960    1.7030    3.2700 c2        1 322     -0.890000
     11 N1          1.5810    0.1200    1.9360 n         1 322     -0.176000
     12 S1          3.9780    0.8830    2.5810 s4        1 322      1.133000
     13 O1          1.7130   -0.6300    7.8060 os        1 322     -0.230000
     14 C11         1.4860    1.3110    2.7950 c2        1 322      0.387000
     15 C12         3.9660    2.6710    6.6430 ca        1 322     -0.163000
     16 C13         4.0970    2.1200    7.9340 ca        1 322     -0.169000
     17 C14         3.3350    1.0000    8.2790 ca        1 322      0.077000
     18 O2          0.8430   -1.4780    4.1240 o         1 322     -0.566500
     19 O3         -0.6270   -2.6220    2.8830 o         1 322     -0.566500
     20 O4          0.3930    1.8590    2.9770 o         1 322     -0.322000
     21 O5          3.4510    0.4660    9.5410 oh        1 322     -0.249000
     22 H9         -0.4710   -0.1190    1.7190 h1        1 322      0.117000
     23 H9A         0.5690   -1.4020    0.9080 h1        1 322      0.117000
     24 H4          1.6420    0.5410    5.3070 ha        1 322      0.202000
     25 H6          1.9400    3.3020    4.3690 hc        1 322      0.100500
     26 H6A         3.7290    3.4220    4.1100 hc        1 322      0.100500
     27 H2         -0.9000    0.6710    5.1000 ha        1 322      0.001000
     28 H2A        -0.6240    0.3450    4.5720 ha        1 322      0.001000
     29 H1          0.3120   -0.9250    6.2590 h1        1 322      0.174500
     30 H1A         1.9180   -1.7390    6.0130 h1        1 322      0.174500
     31 H1B         0.1540   -3.3900    6.7540 ha        1 322      0.074000
     32 H7          4.4850    0.1230    3.5140 hs        1 322     -0.175000
     33 HO5         2.8970   -0.3320    9.5790 ho        1 322      0.247000
     34 BR1         4.9990    4.1880    6.2230 br        1 322      0.038000
     35 BR2         5.2920    2.8970    9.1560 br        1 322      0.062000
     36 S2          3.5500   -1.3100    0.7820 s         1 322     -0.093000
@<TRIPOS>BOND
     1    1    3 1   
     2    1   18 1   
     3    1   19 1   
     4    2   11 1   
     5    2   12 1   
     6    2   36 1   
     7    3   11 1   
     8    3   22 1   
     9    3   23 1   
    10    4    5 1   
    11    4    7 1   
    12    4   24 1   
    13    5    6 1   
    14    5   15 1   
    15    6   10 1   
    16    6   25 1   
    17    6   26 1   
    18    7   13 1   
    19    7   17 1   
    20    8    9 1   
    21    8   13 1   
    22    8   29 1   
    23    8   30 1   
    24    9   31 1   
    25   10   12 1   
    26   10   14 1   
    27   11   14 1   
    28   12   32 1   
    29   14   20 1   
    30   15   16 1   
    31   15   34 1   
    32   16   17 1   
    33   16   35 1   
    34   17   21 1   
    35   21   33 1   
    36   27   28 1   
@<TRIPOS>SUBSTRUCTURE
     1 322         1 TEMP              0 ****  ****    0 ROOT
