@<TRIPOS>MOLECULE
322
   36    33     1     0     0
SMALL
bcc


@<TRIPOS>ATOM
      1 C10        -4.2540   -4.1190   -2.6350 c1        1 322      0.334000
      2 C8         -1.3600   -3.9330   -1.4500 c1        1 322     -0.126000
      3 C9         -3.2390   -3.1350   -3.1740 c2        1 322     -0.137000
      4 C4          0.5730    1.3820    0.8920 c1        1 322     -0.083000
      5 C5          0.6210    0.0140    0.6730 c1        1 322     -0.043000
      6 C6         -0.6630   -0.7810    0.5680 c3        1 322     -0.136000
      7 C3          1.7470    2.1020    1.0420 c1        1 322      0.036000
      8 C2          1.8260    4.3580    1.7280 c3        1 322     -0.023000
      9 C1          1.0660    5.3640    2.5650 c3        1 322     -0.216000
     10 C7         -0.6340   -1.6120   -0.6690 c3        1 322     -0.262000
     11 BR1         1.9130   -2.5120    0.2580 br        1 322      0.094000
     12 BR2         4.7070   -0.8080    0.6700 br        1 322      0.056000
     13 N1         -2.2640   -2.8650   -2.1750 n         1 322     -0.216000
     14 S1         -0.4220   -3.0520   -0.3060 s         1 322      0.168000
     15 O1          1.3190    3.0660    1.9700 o         1 322     -0.212000
     16 C11        -2.1820   -1.6580   -1.3630 c2        1 322      0.333000
     17 C12         1.8450   -0.6330    0.6040 c2        1 322     -0.133000
     18 C13         3.0190    0.0870    0.7540 c2        1 322     -0.228000
     19 C14         2.9710    1.4550    0.9730 c2        1 322      0.072000
     20 O2         -4.2760   -5.3010   -3.0680 o         1 322     -0.557500
     21 S2         -1.5920   -5.5910   -1.4660 s         1 322     -0.132000
     22 O3         -5.0460   -3.7690   -1.7210 o         1 322     -0.557500
     23 O4         -3.0130   -0.7740   -1.3120 o         1 322     -0.283000
     24 O5          4.3610    1.6550    1.0610 oh        1 322     -0.244000
     25 H9         -3.6910   -2.3030   -3.4230 h4        1 322      0.111000
     26 H9A        -2.8010   -3.5170   -3.9630 h4        1 322      0.111000
     27 H4         -0.2900    1.8340    0.9670 ha        1 322      0.181000
     28 H6         -0.7500   -1.3630    1.3500 hc        1 322      0.156500
     29 H6A        -1.4240   -0.1680    0.5320 hc        1 322      0.156500
     30 H2          1.7210    4.5770    0.7790 h1        1 322      0.081500
     31 H2A         2.7760    4.3860    1.9660 h1        1 322      0.081500
     32 H1          1.1500    5.1300    3.5130 hc        1 322      0.083667
     33 H1A         0.1200    5.3540    2.3080 hc        1 322      0.083667
     34 H1B         1.4360    6.2590    2.4150 hc        1 322      0.083667
     35 H7          0.0740   -1.1680   -1.1770 h1        1 322      0.142000
     36 HO5         4.6540    2.0380    0.3130 ho        1 322      0.224000
@<TRIPOS>BOND
     1    1   20 1   
     2    1   22 1   
     3    2   13 1   
     4    2   21 1   
     5    3   13 1   
     6    3   25 1   
     7    3   26 1   
     8    4    7 1   
     9    4   27 1   
    10    5    6 1   
    11    5   17 1   
    12    6   10 1   
    13    6   28 1   
    14    6   29 1   
    15    7   19 1   
    16    8    9 1   
    17    8   15 1   
    18    8   30 1   
    19    8   31 1   
    20    9   32 1   
    21    9   33 1   
    22    9   34 1   
    23   10   14 1   
    24   10   16 1   
    25   10   35 1   
    26   11   17 1   
    27   12   18 1   
    28   13   16 1   
    29   16   23 1   
    30   17   18 1   
    31   18   19 1   
    32   19   24 1   
    33   24   36 1   
@<TRIPOS>SUBSTRUCTURE
     1 322         1 TEMP              0 ****  ****    0 ROOT
