@<TRIPOS>MOLECULE
322
   36    37     1     0     0
SMALL
bcc


@<TRIPOS>ATOM
      1 C10         0.1500   -1.3630    2.9570 c         1 322      0.920600
      2 C8          3.4340   -0.6000    2.5260 c         1 322      0.407000
      3 C9          1.1220   -1.1030    1.7670 c3        1 322     -0.060000
      4 C4          2.0090    1.2240    5.8030 ca        1 322     -0.140000
      5 C5          2.8620    2.2330    5.3290 ca        1 322     -0.055300
      6 C6          2.5800    2.7970    3.9770 c3        1 322     -0.019100
      7 C3          2.1870    0.7100    7.0820 ca        1 322      0.083100
      8 C2          0.5900   -1.0390    6.7570 c3        1 322      0.127400
      9 C1          0.0380   -2.1780    7.5780 c3        1 322     -0.097100
     10 C7          3.0950    1.9770    2.8090 c3        1 322     -0.100600
     11 N1          2.2160   -0.1840    2.0180 n         1 322     -0.392400
     12 S1          4.3420    0.7520    3.1550 ss        1 322     -0.166700
     13 O1          1.3970   -0.2550    7.6660 os        1 322     -0.373900
     14 C11         1.9620    1.2060    2.1270 c         1 322      0.702500
     15 C12         3.8920    2.7130    6.1440 ca        1 322     -0.003900
     16 C13         4.0810    2.2040    7.4440 ca        1 322     -0.026900
     17 C14         3.2280    1.2000    7.9150 ca        1 322      0.124100
     18 O2          0.2210   -0.6430    3.9930 o         1 322     -0.833300
     19 O3         -0.6730   -2.2970    2.7840 o         1 322     -0.833300
     20 O4          0.9730    1.7620    1.6380 o         1 322     -0.570500
     21 O5          3.3990    0.7140    9.1900 oh        1 322     -0.494100
     22 H9          0.5140   -0.6710    0.9250 h1        1 322      0.073700
     23 H9A         1.5590   -2.0890    1.4500 h1        1 322      0.073700
     24 H4          1.2090    0.8260    5.1430 ha        1 322      0.224000
     25 H6          1.4620    2.9090    3.8650 hc        1 322      0.074200
     26 H6A         3.0130    3.8320    3.8990 hc        1 322      0.074200
     27 H2          1.2200   -1.4050    5.9020 h1        1 322      0.087200
     28 H2A        -0.2260   -0.3890    6.3440 h1        1 322      0.087200
     29 H1         -0.5700   -1.7950    8.4310 hc        1 322      0.040367
     30 H1A        -0.6090   -2.8040    6.9150 hc        1 322      0.040367
     31 H1B         0.8630   -2.8090    7.9870 hc        1 322      0.040367
     32 H7          3.5180    2.6820    2.0440 h1        1 322      0.100700
     33 HO5         2.8140   -0.0540    9.2940 ho        1 322      0.441000
     34 Br1         5.0700    4.0450    5.5300 br        1 322     -0.098100
     35 Br2         5.4700    2.8810    8.5090 br        1 322     -0.075100
     36 S2          4.1020   -2.0070    2.5370 s         1 322     -0.381400
@<TRIPOS>BOND
     1    1    3 1   
     2    1   18 1   
     3    1   19 1   
     4    2   11 1   
     5    2   12 1   
     6    2   36 2   
     7    3   11 1   
     8    3   22 1   
     9    3   23 1   
    10    4    5 ar  
    11    4    7 ar  
    12    4   24 1   
    13    5    6 1   
    14    5   15 ar  
    15    6   10 1   
    16    6   25 1   
    17    6   26 1   
    18    7   13 1   
    19    7   17 ar  
    20    8    9 1   
    21    8   13 1   
    22    8   27 1   
    23    8   28 1   
    24    9   29 1   
    25    9   30 1   
    26    9   31 1   
    27   10   12 1   
    28   10   14 1   
    29   10   32 1   
    30   11   14 1   
    31   14   20 2   
    32   15   16 ar  
    33   15   34 1   
    34   16   17 ar  
    35   16   35 1   
    36   17   21 1   
    37   21   33 1   
@<TRIPOS>SUBSTRUCTURE
     1 322         1 TEMP              0 ****  ****    0 ROOT
