@<TRIPOS>MOLECULE
323
   53    56     1     0     0
SMALL
bcc


@<TRIPOS>ATOM
      1 C1          0.2980    0.9310    0.7320 cc        1 323      0.293000
      2 O1          1.8150   -0.7570    2.4840 os        1 323     -0.368800
      3 N1          5.8250   -0.0480   -0.0000 nh        1 323     -0.276600
      4 C10         2.4150    1.2820   -0.5500 cd        1 323      0.044800
      5 C11         3.7500    1.0300   -0.7310 cc        1 323     -0.318600
      6 C12         4.4780    0.1820    0.1720 cc        1 323      0.436900
      7 C13         3.7710   -0.3990    1.2540 cc        1 323     -0.366600
      8 C14        -3.4970   -1.9670    5.1350 c3        1 323      0.194100
      9 C15        -1.2680   -2.8250    5.7930 c3        1 323      0.194100
     10 C16         6.5030    0.4580   -1.1630 c3        1 323      0.016600
     11 C17         6.5170   -0.9620    0.8670 c3        1 323      0.016600
     12 C18        -0.4240    1.8730   -0.1210 ca        1 323     -0.115000
     13 C19        -0.0280    3.2270   -0.1140 ca        1 323     -0.132000
     14 O2         -1.1450   -0.8350   -1.5370 o         1 323     -0.792300
     15 N2         -2.0660   -1.9500    4.9790 nh        1 323     -0.658500
     16 C2          1.6900    0.7240    0.5360 cd        1 323     -0.278100
     17 C20        -0.6840    4.1480   -0.9120 ca        1 323     -0.122000
     18 C21        -1.7370    3.7340   -1.7470 ca        1 323     -0.177600
     19 C22        -2.1220    2.3950   -1.7610 ca        1 323     -0.050000
     20 C23        -1.4720    1.4530   -0.9480 ca        1 323     -0.085600
     21 C24        -1.9220   -0.0130   -0.9950 c         1 323      0.902200
     22 C25        -2.4160    4.7300   -2.5930 c         1 323      0.571500
     23 O3         -3.0280   -0.2700   -0.4480 o         1 323     -0.792300
     24 C3          2.4100   -0.1310    1.4080 cd        1 323      0.378200
     25 O4         -3.3300    4.4650   -3.3750 o         1 323     -0.516100
     26 C4          0.4510   -0.6010    2.6410 ca        1 323      0.443500
     27 C5         -0.3230    0.2410    1.7900 ca        1 323     -0.266300
     28 C6         -0.0940   -1.3190    3.7000 ca        1 323     -0.345300
     29 C7         -1.4930   -1.2490    3.9460 ca        1 323      0.290600
     30 C8         -2.2850   -0.4110    3.0890 ca        1 323     -0.232000
     31 C9         -1.7240    0.2930    2.0570 ca        1 323      0.033000
     32 H10         1.8670    1.9210   -1.2680 ha        1 323      0.190000
     33 H11         4.2630    1.4790   -1.5950 ha        1 323      0.156500
     34 H13         4.2570   -1.0730    1.9740 ha        1 323      0.162000
     35 H114       -3.7860   -2.6450    5.9800 h1        1 323      0.052617
     36 H214       -3.8680   -0.9310    5.3630 h1        1 323      0.052617
     37 H314       -3.9950   -2.3320    4.1950 h1        1 323      0.052617
     38 H115       -0.8060   -3.6380    5.1690 h1        1 323      0.052617
     39 H215       -0.4460   -2.2400    6.2900 h1        1 323      0.052617
     40 H315       -1.9000   -3.2970    6.5890 h1        1 323      0.052617
     41 H116        7.5790    0.1420   -1.1510 h1        1 323      0.052617
     42 H216        6.4610    1.5810   -1.1710 h1        1 323      0.052617
     43 H316        6.0260    0.0700   -2.1040 h1        1 323      0.052617
     44 H117        6.4550   -0.6010    1.9290 h1        1 323      0.052617
     45 H217        7.5980   -1.0290    0.5760 h1        1 323      0.052617
     46 H317        6.0640   -1.9890    0.8070 h1        1 323      0.052617
     47 H19         0.7960    3.5500    0.5400 ha        1 323      0.128000
     48 H20        -0.3820    5.2060   -0.8940 ha        1 323      0.131000
     49 H22        -2.9520    2.0620   -2.4090 ha        1 323      0.178000
     50 H25        -2.0400    5.7740   -2.4780 h4        1 323     -0.009800
     51 H6          0.5710   -1.9480    4.3090 ha        1 323      0.162000
     52 H8         -3.3770   -0.3530    3.2290 ha        1 323      0.156500
     53 H9         -2.3740    0.8750    1.3690 ha        1 323      0.190000
@<TRIPOS>BOND
     1    1   12 1   
     2    1   16 2   
     3    1   27 1   
     4    2   24 1   
     5    2   26 1   
     6    3    6 2   
     7    3   10 1   
     8    3   11 1   
     9    4    5 2   
    10    4   16 1   
    11    4   32 1   
    12    5    6 1   
    13    5   33 1   
    14    6    7 1   
    15    7   24 2   
    16    7   34 1   
    17    8   15 1   
    18    8   35 1   
    19    8   36 1   
    20    8   37 1   
    21    9   15 1   
    22    9   38 1   
    23    9   39 1   
    24    9   40 1   
    25   10   41 1   
    26   10   42 1   
    27   10   43 1   
    28   11   44 1   
    29   11   45 1   
    30   11   46 1   
    31   12   13 ar  
    32   12   20 ar  
    33   13   17 ar  
    34   13   47 1   
    35   14   21 1   
    36   15   29 1   
    37   16   24 1   
    38   17   18 ar  
    39   17   48 1   
    40   18   19 ar  
    41   18   22 1   
    42   19   20 ar  
    43   19   49 1   
    44   20   21 1   
    45   21   23 1   
    46   22   25 2   
    47   22   50 1   
    48   26   27 ar  
    49   26   28 ar  
    50   27   31 ar  
    51   28   29 ar  
    52   28   51 1   
    53   29   30 ar  
    54   30   31 ar  
    55   30   52 1   
    56   31   53 1   
@<TRIPOS>SUBSTRUCTURE
     1 323         1 TEMP              0 ****  ****    0 ROOT
