@<TRIPOS>MOLECULE
323
   53    56     1     0     0
SMALL
bcc


@<TRIPOS>ATOM
      1 C1         -0.0110   -0.1620    0.3730 cc        1 323      0.293000
      2 O1         -0.0900    2.7030    0.3130 os        1 323     -0.368800
      3 N1         -4.8610    2.7580    0.2770 nh        1 323     -0.276600
      4 C10        -2.5100   -0.1020    0.3520 cd        1 323      0.044800
      5 C11        -3.6810    0.6110    0.3140 cc        1 323     -0.318600
      6 C12        -3.6800    2.0480    0.2890 cc        1 323      0.436900
      7 C13        -2.4280    2.7120    0.2950 cc        1 323     -0.366600
      8 C14         5.9370    2.3800   -0.2140 c3        1 323      0.194100
      9 C15         4.5550    4.4330   -0.0860 c3        1 323      0.194100
     10 C16        -6.1180    2.0710    0.1590 c3        1 323      0.016600
     11 C17        -4.8380    4.1910    0.1720 c3        1 323      0.016600
     12 C18        -0.0060   -1.6170    0.5020 ca        1 323     -0.115000
     13 C19        -0.5520   -2.1920    1.6690 ca        1 323     -0.132000
     14 O2          0.2930   -1.3260   -2.6110 o         1 323     -0.792300
     15 N2          4.6550    3.0010   -0.0040 nh        1 323     -0.658500
     16 C2         -1.2450    0.5430    0.3740 cd        1 323     -0.278100
     17 C20        -0.5700   -3.5670    1.8250 ca        1 323     -0.122000
     18 C21        -0.0600   -4.3980    0.8110 ca        1 323     -0.177600
     19 C22         0.4710   -3.8310   -0.3450 ca        1 323     -0.050000
     20 C23         0.5060   -2.4370   -0.5100 ca        1 323     -0.085600
     21 C24         1.0940   -1.8510   -1.8000 c         1 323      0.902200
     22 C25        -0.0950   -5.8590    0.9960 c         1 323      0.571500
     23 O3          2.3470   -1.9190   -1.9170 o         1 323     -0.792300
     24 C3         -1.2520    1.9600    0.3260 cd        1 323      0.378200
     25 O4          0.3020   -6.6710    0.1600 o         1 323     -0.516100
     26 C4          1.1080    2.0180    0.2560 ca        1 323      0.443500
     27 C5          1.1740    0.5940    0.2950 ca        1 323     -0.266300
     28 C6          2.2340    2.8290    0.1710 ca        1 323     -0.345300
     29 C7          3.5220    2.2310    0.0880 ca        1 323      0.290600
     30 C8          3.6000    0.7970    0.1170 ca        1 323     -0.232000
     31 C9          2.4770    0.0190    0.2090 ca        1 323      0.033000
     32 H10        -2.5310   -1.2070    0.3480 ha        1 323      0.190000
     33 H11        -4.6350    0.0620    0.2870 ha        1 323      0.156500
     34 H13        -2.3490    3.8070    0.2590 ha        1 323      0.162000
     35 H114        6.7300    3.1630   -0.3360 h1        1 323      0.052617
     36 H214        6.1990    1.7390    0.6710 h1        1 323      0.052617
     37 H314        5.9200    1.7370   -1.1370 h1        1 323      0.052617
     38 H115        3.9730    4.7400   -0.9980 h1        1 323      0.052617
     39 H215        4.0340    4.8320    0.8270 h1        1 323      0.052617
     40 H315        5.5770    4.8900   -0.1400 h1        1 323      0.052617
     41 H116       -6.2690    1.3960    1.0460 h1        1 323      0.052617
     42 H216       -6.9610    2.8100    0.1280 h1        1 323      0.052617
     43 H316       -6.1490    1.4500   -0.7780 h1        1 323      0.052617
     44 H117       -4.2870    4.6280    1.0500 h1        1 323      0.052617
     45 H217       -4.3230    4.5150   -0.7740 h1        1 323      0.052617
     46 H317       -5.8830    4.5960    0.1700 h1        1 323      0.052617
     47 H19        -0.9520   -1.5420    2.4610 ha        1 323      0.128000
     48 H20        -0.9840   -4.0120    2.7420 ha        1 323      0.131000
     49 H22         0.8800   -4.4760   -1.1430 ha        1 323      0.178000
     50 H25        -0.5180   -6.1970    1.9710 h4        1 323     -0.009800
     51 H6          2.0980    3.9190    0.1440 ha        1 323      0.162000
     52 H8          4.5770    0.2950    0.0250 ha        1 323      0.156500
     53 H9          2.5670   -1.0870    0.1570 ha        1 323      0.190000
@<TRIPOS>BOND
     1    1   12 1   
     2    1   16 2   
     3    1   27 1   
     4    2   24 1   
     5    2   26 1   
     6    3    6 2   
     7    3   10 1   
     8    3   11 1   
     9    4    5 2   
    10    4   16 1   
    11    4   32 1   
    12    5    6 1   
    13    5   33 1   
    14    6    7 1   
    15    7   24 2   
    16    7   34 1   
    17    8   15 1   
    18    8   35 1   
    19    8   36 1   
    20    8   37 1   
    21    9   15 1   
    22    9   38 1   
    23    9   39 1   
    24    9   40 1   
    25   10   41 1   
    26   10   42 1   
    27   10   43 1   
    28   11   44 1   
    29   11   45 1   
    30   11   46 1   
    31   12   13 ar  
    32   12   20 ar  
    33   13   17 ar  
    34   13   47 1   
    35   14   21 1   
    36   15   29 1   
    37   16   24 1   
    38   17   18 ar  
    39   17   48 1   
    40   18   19 ar  
    41   18   22 1   
    42   19   20 ar  
    43   19   49 1   
    44   20   21 1   
    45   21   23 1   
    46   22   25 2   
    47   22   50 1   
    48   26   27 ar  
    49   26   28 ar  
    50   27   31 ar  
    51   28   29 ar  
    52   28   51 1   
    53   29   30 ar  
    54   30   31 ar  
    55   30   52 1   
    56   31   53 1   
@<TRIPOS>SUBSTRUCTURE
     1 323         1 TEMP              0 ****  ****    0 ROOT
