@<TRIPOS>MOLECULE
323
   53    44     1     0     0
SMALL
bcc


@<TRIPOS>ATOM
      1 C1         -0.3610    0.0980   -0.6390 c1        1 323      0.293000
      2 O1          1.0880    0.3250    1.8370 os        1 323     -0.110000
      3 N1          5.2210    0.1290   -0.6850 n2        1 323     -0.255000
      4 C10         1.8160    0.1770   -1.8620 c1        1 323      0.033000
      5 C11         3.2050    0.1430   -1.8740 c1        1 323     -0.232000
      6 C12         3.9120    0.1600   -0.6760 c1        1 323      0.217000
      7 C13         3.2320    0.2110    0.5260 c1        1 323     -0.280000
      8 C14        -2.8890    1.8190    5.1750 c3        1 323     -0.080000
      9 C15        -3.3050   -0.6350    5.1940 c3        1 323     -0.080000
     10 C16         5.9590    0.1510    0.5780 c3        1 323     -0.083000
     11 C17         5.9290    0.0770   -1.9340 c2        1 323     -0.085000
     12 C18        -1.0920   -0.4990   -1.8700 c1        1 323     -0.115000
     13 C19        -1.1820   -1.8820   -2.0230 c1        1 323     -0.127000
     14 O2         -2.5990    2.5510   -2.2920 o         1 323     -0.527000
     15 N2         -2.8620    0.5290    4.5050 n3        1 323     -0.266000
     16 C2          1.1330    0.2280   -0.6550 c1        1 323     -0.201000
     17 C20        -1.9320   -2.4180   -3.0660 c1        1 323     -0.127000
     18 C21        -2.5910   -1.5810   -3.9540 c1        1 323     -0.157000
     19 C22        -2.5050   -0.2060   -3.8070 c1        1 323     -0.050000
     20 C23        -1.7550    0.3420   -2.7640 c1        1 323     -0.065000
     21 C24        -1.5960    1.8210   -2.6570 c2        1 323      0.351000
     22 C25        -3.2680   -2.1680   -5.1760 c1        1 323      0.219000
     23 O3         -0.5600    2.3550   -3.0560 o         1 323     -0.527000
     24 C3          1.8310    0.2460    0.5360 c1        1 323      0.183500
     25 O4         -3.8290   -1.4600   -5.9340 o         1 323     -0.277000
     26 C4         -0.3900    0.2900    1.8490 c1        1 323      0.183500
     27 C5         -1.0940    0.2220    0.6530 c1        1 323     -0.201000
     28 C6         -1.0920    0.4060    3.0730 c1        1 323     -0.280000
     29 C7         -2.4710    0.4500    3.0760 c1        1 323      0.201000
     30 C8         -3.1760    0.3810    1.8720 c1        1 323     -0.232000
     31 C9         -2.4850    0.2670    0.6600 c1        1 323      0.033000
     32 H10         1.3160    0.1650   -2.7110 ha        1 323      0.190000
     33 H11         3.6630    0.1980   -2.6830 ha        1 323      0.162000
     34 H13         3.7200    0.3270    1.3480 ha        1 323      0.162000
     35 H114       -2.3960    1.7500    6.0760 h1        1 323      0.090667
     36 H214       -3.8140    2.0880    5.3320 h1        1 323      0.090667
     37 H314       -2.4360    2.5020    4.5980 h1        1 323      0.090667
     38 H115       -2.8130   -1.4070    4.8830 h1        1 323      0.090667
     39 H215       -4.2850   -0.7720    5.0220 h1        1 323      0.090667
     40 H315       -3.1550   -0.5190    6.1500 h1        1 323      0.090667
     41 H116        6.9010    0.1040    0.4010 h1        1 323      0.091000
     42 H216        5.6810   -0.6420    1.1460 h1        1 323      0.091000
     43 H316        5.7500    1.0150    1.0770 h1        1 323      0.091000
     44 H117        6.8620    0.2160   -1.7770 ha        1 323      0.095333
     45 H217        5.8020   -0.7630   -2.3320 ha        1 323      0.095333
     46 H317        5.5850    0.7850   -2.5380 ha        1 323      0.095333
     47 H19        -0.7110   -2.4880   -1.3880 ha        1 323      0.129500
     48 H20        -1.9940   -3.3630   -3.1700 ha        1 323      0.129500
     49 H22        -2.9650    0.3740   -4.4260 ha        1 323      0.178000
     50 H25        -3.3330   -3.1660   -5.2810 ha        1 323      0.083000
     51 H6         -0.5920    0.4050    3.9340 ha        1 323      0.162000
     52 H8         -4.1180    0.4450    1.8730 ha        1 323      0.151000
     53 H9         -2.9600    0.2190   -0.1480 ha        1 323      0.190000
@<TRIPOS>BOND
     1    1   16 1   
     2    1   27 1   
     3    2   24 1   
     4    2   26 1   
     5    3    6 1   
     6    3   10 1   
     7    4   16 1   
     8    4   32 1   
     9    5    6 1   
    10    5   33 1   
    11    7   24 1   
    12    7   34 1   
    13    8   15 1   
    14    8   35 1   
    15    8   36 1   
    16    8   37 1   
    17    9   15 1   
    18    9   38 1   
    19    9   39 1   
    20    9   40 1   
    21   10   41 1   
    22   10   42 1   
    23   10   43 1   
    24   11   44 1   
    25   11   45 1   
    26   11   46 1   
    27   12   20 1   
    28   13   17 1   
    29   13   47 1   
    30   14   21 1   
    31   15   29 1   
    32   17   48 1   
    33   18   19 1   
    34   19   49 1   
    35   20   21 1   
    36   21   23 1   
    37   22   25 1   
    38   22   50 1   
    39   26   28 1   
    40   27   31 1   
    41   28   51 1   
    42   29   30 1   
    43   30   52 1   
    44   31   53 1   
@<TRIPOS>SUBSTRUCTURE
     1 323         1 TEMP              0 ****  ****    0 ROOT
