@<TRIPOS>MOLECULE
323
   53    56     1     0     0
SMALL
bcc


@<TRIPOS>ATOM
      1 C1          0.2940    0.9260    0.7290 cc        1 323      0.293000
      2 O1          1.8230   -0.7420    2.4890 os        1 323     -0.368800
      3 N1          5.8270   -0.0190   -0.0030 nh        1 323     -0.276600
      4 C10         2.4070    1.2850   -0.5570 cd        1 323      0.044800
      5 C11         3.7440    1.0410   -0.7370 cc        1 323     -0.318600
      6 C12         4.4780    0.2020    0.1700 cc        1 323      0.436900
      7 C13         3.7760   -0.3770    1.2560 cc        1 323     -0.366600
      8 C14        -3.4780   -1.9730    5.1510 c3        1 323      0.194100
      9 C15        -1.2420   -2.8120    5.8110 c3        1 323      0.194100
     10 C16         6.5000    0.4850   -1.1680 c3        1 323      0.016600
     11 C17         6.5260   -0.9240    0.8690 c3        1 323      0.016600
     12 C18        -0.4350    1.8590   -0.1280 ca        1 323     -0.115000
     13 C19        -0.0480    3.2150   -0.1290 ca        1 323     -0.132000
     14 O2         -1.1390   -0.8620   -1.5290 o         1 323     -0.792300
     15 N2         -2.0480   -1.9470    4.9930 nh        1 323     -0.658500
     16 C2          1.6870    0.7280    0.5330 cd        1 323     -0.278100
     17 C20        -0.7120    4.1280   -0.9310 ca        1 323     -0.122000
     18 C21        -1.7620    3.7020   -1.7640 ca        1 323     -0.177600
     19 C22        -2.1380    2.3600   -1.7700 ca        1 323     -0.050000
     20 C23        -1.4810    1.4270   -0.9520 ca        1 323     -0.085600
     21 C24        -1.9210   -0.0420   -0.9900 c         1 323      0.902200
     22 C25        -2.4490    4.6890   -2.6140 c         1 323      0.571500
     23 O3         -3.0250   -0.3030   -0.4420 o         1 323     -0.792300
     24 C3          2.4130   -0.1170    1.4090 cd        1 323      0.378200
     25 O4         -3.3610    4.4140   -3.3940 o         1 323     -0.516100
     26 C4          0.4590   -0.5940    2.6460 ca        1 323      0.443500
     27 C5         -0.3220    0.2380    1.7920 ca        1 323     -0.266300
     28 C6         -0.0810   -1.3100    3.7090 ca        1 323     -0.345300
     29 C7         -1.4800   -1.2480    3.9560 ca        1 323      0.290600
     30 C8         -2.2790   -0.4200    3.0950 ca        1 323     -0.232000
     31 C9         -1.7230    0.2820    2.0590 ca        1 323      0.033000
     32 H10         1.8550    1.9160   -1.2770 ha        1 323      0.190000
     33 H11         4.2530    1.4890   -1.6050 ha        1 323      0.156500
     34 H13         4.2670   -1.0440    1.9790 ha        1 323      0.162000
     35 H114       -3.7620   -2.6480    6.0000 h1        1 323      0.052617
     36 H214       -3.8560   -0.9380    5.3740 h1        1 323      0.052617
     37 H314       -3.9740   -2.3460    4.2130 h1        1 323      0.052617
     38 H115       -0.7760   -3.6260    5.1910 h1        1 323      0.052617
     39 H215       -0.4250   -2.2200    6.3050 h1        1 323      0.052617
     40 H315       -1.8710   -3.2850    6.6110 h1        1 323      0.052617
     41 H116        7.5790    0.1770   -1.1550 h1        1 323      0.052617
     42 H216        6.4510    1.6080   -1.1830 h1        1 323      0.052617
     43 H316        6.0250    0.0890   -2.1070 h1        1 323      0.052617
     44 H117        6.4620   -0.5570    1.9300 h1        1 323      0.052617
     45 H217        7.6070   -0.9850    0.5780 h1        1 323      0.052617
     46 H317        6.0790   -1.9540    0.8160 h1        1 323      0.052617
     47 H19         0.7740    3.5480    0.5220 ha        1 323      0.128000
     48 H20        -0.4160    5.1880   -0.9190 ha        1 323      0.131000
     49 H22        -2.9660    2.0180   -2.4150 ha        1 323      0.178000
     50 H25        -2.0800    5.7360   -2.5060 h4        1 323     -0.009800
     51 H6          0.5890   -1.9310    4.3210 ha        1 323      0.162000
     52 H8         -3.3700   -0.3690    3.2360 ha        1 323      0.156500
     53 H9         -2.3780    0.8560    1.3690 ha        1 323      0.190000
@<TRIPOS>BOND
     1    1   12 1   
     2    1   16 2   
     3    1   27 1   
     4    2   24 1   
     5    2   26 1   
     6    3    6 2   
     7    3   10 1   
     8    3   11 1   
     9    4    5 2   
    10    4   16 1   
    11    4   32 1   
    12    5    6 1   
    13    5   33 1   
    14    6    7 1   
    15    7   24 2   
    16    7   34 1   
    17    8   15 1   
    18    8   35 1   
    19    8   36 1   
    20    8   37 1   
    21    9   15 1   
    22    9   38 1   
    23    9   39 1   
    24    9   40 1   
    25   10   41 1   
    26   10   42 1   
    27   10   43 1   
    28   11   44 1   
    29   11   45 1   
    30   11   46 1   
    31   12   13 ar  
    32   12   20 ar  
    33   13   17 ar  
    34   13   47 1   
    35   14   21 1   
    36   15   29 1   
    37   16   24 1   
    38   17   18 ar  
    39   17   48 1   
    40   18   19 ar  
    41   18   22 1   
    42   19   20 ar  
    43   19   49 1   
    44   20   21 1   
    45   21   23 1   
    46   22   25 2   
    47   22   50 1   
    48   26   27 ar  
    49   26   28 ar  
    50   27   31 ar  
    51   28   29 ar  
    52   28   51 1   
    53   29   30 ar  
    54   30   31 ar  
    55   30   52 1   
    56   31   53 1   
@<TRIPOS>SUBSTRUCTURE
     1 323         1 TEMP              0 ****  ****    0 ROOT
