@<TRIPOS>MOLECULE
324
   41    33     1     0     0
SMALL
bcc


@<TRIPOS>ATOM
      1 O24        -3.3780    1.0500   -1.3950 o         1 324     -0.921500
      2 S22        -3.0510    2.4240   -1.1290 ss        1 324      2.815000
      3 O23        -4.3160    2.9280   -0.6720 o         1 324     -0.921500
      4 C25        -2.5200    3.2560   -2.6030 c2        1 324     -0.866000
      5 C26        -3.3750    2.8100   -3.7700 c3        1 324     -0.136000
      6 C27        -2.6620    3.1260   -5.0670 c3        1 324     -0.205000
      7 N21        -1.9020    2.5480    0.0390 n2        1 324     -0.826000
      8 C17        -1.5280    1.4020    0.7920 c2        1 324      0.028000
      9 C18        -0.2740    0.8370    0.6140 c2        1 324      0.104000
     10 F20         0.5500    1.3190   -0.3250 f         1 324     -0.090000
     11 C16        -2.3720    0.9170    1.7780 c1        1 324     -0.116000
     12 C15        -1.9640   -0.1320    2.5860 c1        1 324     -0.157000
     13 C14        -0.7100   -0.6970    2.4080 c1        1 324      0.123000
     14 F19        -0.3000   -1.6830    3.2170 f         1 324     -0.087000
     15 C13         0.1350   -0.2130    1.4220 c2        1 324     -0.189000
     16 C11         1.5400   -0.7640    1.2930 c2        1 324      0.352000
     17 O12         2.4650   -0.0170    1.0460 o         1 324     -0.267000
     18 C9          1.7970   -2.2400    1.5140 c2        1 324     -0.217000
     19 C8          1.4470   -2.8420    0.3210 c1        1 324      0.001000
     20 C2          3.0350   -2.7210    1.8860 c1        1 324     -0.071000
     21 C1          3.8430   -2.4560    2.9790 c1        1 324     -0.036000
     22 C3          3.4460   -3.6130    0.9300 c1        1 324      0.015000
     23 N7          2.4600   -3.6870   -0.0390 n1        1 324     -0.185000
     24 N4          4.6670   -4.2490    1.0580 n1        1 324     -0.127000
     25 C5          5.4640   -3.9890    2.1340 c1        1 324     -0.044000
     26 C6          5.0490   -3.0850    3.1040 c1        1 324     -0.137000
     27 CL10        6.2930   -3.2360    4.3160 cl        1 324      0.006000
     28 H25        -2.6120    4.2220   -2.4830 ha        1 324      0.151500
     29 H25A       -1.5840    3.0370   -2.7830 ha        1 324      0.151500
     30 H26        -3.5300    1.8460   -3.7100 hc        1 324      0.101500
     31 H26A       -4.2310    3.2800   -3.7450 hc        1 324      0.101500
     32 H27        -1.7860    2.6870   -5.0740 hc        1 324      0.077667
     33 H27A       -2.5420    4.0960   -5.1460 hc        1 324      0.077667
     34 H27B       -3.1970    2.8010   -5.8220 hc        1 324      0.077667
     35 HN21       -1.5230    3.3570    0.2220 hn        1 324      0.263000
     36 H16        -3.2550    1.3150    1.9040 ha        1 324      0.189000
     37 H15        -2.5590   -0.4740    3.2810 ha        1 324      0.165000
     38 H8          0.6200   -2.6940   -0.1750 DU        1 324      0.222500
     39 H1          3.5510   -1.8210    3.6600 ha        1 324      0.180000
     40 H5          6.3260   -4.4380    2.2230 ha        1 324      0.176000
     41 H14         2.4830   -4.2080   -0.7870 DU        1 324      0.222500
@<TRIPOS>BOND
     1    1    2 1   
     2    2    3 1   
     3    4    5 1   
     4    4   28 1   
     5    4   29 1   
     6    5    6 1   
     7    5   30 1   
     8    5   31 1   
     9    6   32 1   
    10    6   33 1   
    11    6   34 1   
    12    7    8 1   
    13    7   35 1   
    14    8    9 1   
    15    8   11 1   
    16    9   10 1   
    17    9   15 1   
    18   11   36 1   
    19   12   13 1   
    20   12   37 1   
    21   13   15 1   
    22   15   16 1   
    23   16   17 1   
    24   16   18 1   
    25   18   19 1   
    26   18   20 1   
    27   19   23 1   
    28   20   22 1   
    29   21   26 1   
    30   21   39 1   
    31   24   25 1   
    32   25   40 1   
    33   26   27 1   
@<TRIPOS>SUBSTRUCTURE
     1 324         1 TEMP              0 ****  ****    0 ROOT
