@<TRIPOS>MOLECULE
324
   41    43     1     0     0
SMALL
bcc


@<TRIPOS>ATOM
      1 O24        -0.0350   -0.2970   -0.1060 o         1 324     -0.643300
      2 S22         1.3630   -0.1520   -0.0970 s6        1 324      1.458900
      3 O23         1.9950   -0.0730    1.1590 o         1 324     -0.643300
      4 C25         2.0540   -1.4370   -0.9930 c3        1 324     -0.330600
      5 C26         1.7490   -2.7690   -0.3400 c3        1 324     -0.056400
      6 C27         2.3460   -3.9160   -1.1130 c3        1 324     -0.088100
      7 N21         1.8220    1.1680   -0.9500 nu        1 324     -0.773500
      8 C17         1.3120    1.6340   -2.1690 ca        1 324      0.113600
      9 C18         2.1580    2.3460   -3.0730 ca        1 324      0.134900
     10 F20         3.4510    2.5750   -2.7370 f         1 324     -0.125900
     11 C16        -0.0340    1.4340   -2.5390 ca        1 324     -0.123000
     12 C15        -0.5170    1.8880   -3.7560 ca        1 324     -0.155000
     13 C14         0.3250    2.5820   -4.6440 ca        1 324      0.155900
     14 F19        -0.1710    3.0090   -5.8280 f         1 324     -0.120900
     15 C13         1.6680    2.8290   -4.3010 ca        1 324     -0.206600
     16 C11         2.5800    3.5400   -5.2450 c         1 324      0.631900
     17 O12         3.2720    2.9030   -6.0470 o         1 324     -0.509100
     18 C9          2.5980    4.9870   -5.1550 cc        1 324     -0.226400
     19 C8          1.8510    5.8000   -4.2880 cd        1 324     -0.023100
     20 C2          3.4080    5.8720   -5.9630 ca        1 324     -0.147100
     21 C1          4.3440    5.6980   -6.9850 ca        1 324     -0.036000
     22 C3          3.1020    7.2250   -5.5290 ca        1 324      0.406800
     23 N7          2.1430    7.1380   -4.5000 na        1 324     -0.270100
     24 N4          3.6700    8.3520   -6.0540 nb        1 324     -0.653000
     25 C5          4.5560    8.1330   -7.0280 ca        1 324      0.421200
     26 C6          4.9210    6.8450   -7.5200 ca        1 324     -0.123900
     27 Cl10        6.0650    6.7380   -8.7630 cl        1 324     -0.072400
     28 H25         3.1690   -1.3390   -1.0810 h1        1 324      0.117200
     29 H25A        1.6760   -1.4710   -2.0490 h1        1 324      0.117200
     30 H26         0.6350   -2.9010   -0.2720 hc        1 324      0.060700
     31 H26A        2.1580   -2.7690    0.7070 hc        1 324      0.060700
     32 H27         2.1060   -4.8830   -0.6090 hc        1 324      0.039700
     33 H27A        3.4570   -3.8150   -1.1750 hc        1 324      0.039700
     34 H27B        1.9380   -3.9470   -2.1520 hc        1 324      0.039700
     35 HN21        2.5940    1.7120   -0.6220 hn        1 324      0.464800
     36 H16        -0.7270    0.9050   -1.8560 ha        1 324      0.188000
     37 H15        -1.5670    1.7100   -4.0370 ha        1 324      0.165000
     38 H8          1.1220    5.5010   -3.5280 h4        1 324      0.179000
     39 H1          4.5980    4.6840   -7.3370 ha        1 324      0.179000
     40 H5          5.0200    9.0410   -7.4590 h4        1 324      0.039100
     41 H14         1.7500    7.9080   -4.0230 hn        1 324      0.318700
@<TRIPOS>BOND
     1    1    2 2   
     2    2    3 2   
     3    2    4 1   
     4    2    7 1   
     5    4    5 1   
     6    4   28 1   
     7    4   29 1   
     8    5    6 1   
     9    5   30 1   
    10    5   31 1   
    11    6   32 1   
    12    6   33 1   
    13    6   34 1   
    14    7    8 1   
    15    7   35 1   
    16    8    9 ar  
    17    8   11 ar  
    18    9   10 1   
    19    9   15 ar  
    20   11   12 ar  
    21   11   36 1   
    22   12   13 ar  
    23   12   37 1   
    24   13   14 1   
    25   13   15 ar  
    26   15   16 1   
    27   16   17 2   
    28   16   18 1   
    29   18   19 2   
    30   18   20 1   
    31   19   23 1   
    32   19   38 1   
    33   20   21 ar  
    34   20   22 ar  
    35   21   26 ar  
    36   21   39 1   
    37   22   23 1   
    38   22   24 ar  
    39   23   41 1   
    40   24   25 ar  
    41   25   26 ar  
    42   25   40 1   
    43   26   27 1   
@<TRIPOS>SUBSTRUCTURE
     1 324         1 TEMP              0 ****  ****    0 ROOT
