@<TRIPOS>MOLECULE
324
   42    44     1     0     0
SMALL
bcc


@<TRIPOS>ATOM
      1 O24        -0.0460   -0.8770    0.0180 o         1 324     -0.553800
      2 S22         1.2870   -0.5360   -0.0100 s6        1 324      1.395900
      3 O23         2.0790   -0.6510    1.1110 o         1 324     -0.553800
      4 C25         2.0600   -0.8370   -1.4360 c3        1 324     -0.407600
      5 C26         2.6110   -2.2640   -1.4620 c3        1 324     -0.054400
      6 C27         3.3470   -2.5340   -2.7480 c3        1 324     -0.097100
      7 N21         1.1620    1.3930   -0.0930 n4        1 324     -0.555300
      8 C17         0.7340    1.8900   -1.3840 ca        1 324     -0.138400
      9 C18         1.6850    2.3920   -2.3170 ca        1 324      0.198900
     10 F20         2.9940    2.4040   -1.9760 f         1 324     -0.110900
     11 C16        -0.6350    1.9050   -1.7210 ca        1 324     -0.049000
     12 C15        -1.0440    2.3620   -2.9610 ca        1 324     -0.165000
     13 C14        -0.0980    2.8280   -3.9020 ca        1 324      0.235900
     14 F19        -0.5270    3.2440   -5.1060 f         1 324     -0.079900
     15 C13         1.2770    2.8470   -3.5830 ca        1 324     -0.210600
     16 C11         2.3210    3.2370   -4.5920 c         1 324      0.629900
     17 O12         2.9990    2.3350   -5.0990 o         1 324     -0.506100
     18 C9          2.4750    4.6380   -4.8800 cc        1 324     -0.248400
     19 C8          1.7560    5.7270   -4.3490 cd        1 324     -0.020100
     20 C2          3.4410    5.1890   -5.8060 ca        1 324     -0.145100
     21 C1          4.4280    4.6580   -6.6420 ca        1 324     -0.047000
     22 C3          3.2560    6.6280   -5.7860 ca        1 324      0.406800
     23 N7          2.2140    6.9150   -4.8770 na        1 324     -0.250100
     24 N4          3.9840    7.5130   -6.5310 nb        1 324     -0.638000
     25 C5          4.9140    6.9600   -7.3120 ca        1 324      0.431200
     26 C6          5.1700    5.5570   -7.4010 ca        1 324     -0.110900
     27 CL10        6.3850    5.0120   -8.4410 cl        1 324     -0.048400
     28 H25         2.9340   -0.1560   -1.6620 h1        1 324      0.169200
     29 H25A        1.3960   -0.7290   -2.3450 h1        1 324      0.169200
     30 H26         3.3080   -2.4080   -0.5930 hc        1 324      0.072200
     31 H26A        1.7600   -2.9920   -1.3610 hc        1 324      0.072200
     32 H27         3.7310   -3.5850   -2.7440 hc        1 324      0.061700
     33 H27A        2.6720   -2.4080   -3.6290 hc        1 324      0.061700
     34 H27B        4.2160   -1.8420   -2.8640 hc        1 324      0.061700
     35 HN21        0.4880    1.7050    0.6100 hn        1 324      0.459800
     36 H16        -1.3930    1.5360   -1.0050 ha        1 324      0.180000
     37 H15        -2.1150    2.3610   -3.2300 ha        1 324      0.195000
     38 H8          0.9380    5.7180   -3.6230 h4        1 324      0.169000
     39 H1          4.5940    3.5700   -6.6850 ha        1 324      0.177000
     40 H5          5.5070    7.6710   -7.9190 h4        1 324      0.052100
     41 H14         1.8680    7.8220   -4.6810 hn        1 324      0.328700
     42 H212        2.0610    1.8150    0.1490 hn        1 324      0.459800
@<TRIPOS>BOND
     1    1    2 2   
     2    2    3 2   
     3    2    4 1   
     4    2    7 1   
     5    4    5 1   
     6    4   28 1   
     7    4   29 1   
     8    5    6 1   
     9    5   30 1   
    10    5   31 1   
    11    6   32 1   
    12    6   33 1   
    13    6   34 1   
    14    7    8 1   
    15    7   35 1   
    16    7   42 1   
    17    8    9 ar  
    18    8   11 ar  
    19    9   10 1   
    20    9   15 ar  
    21   11   12 ar  
    22   11   36 1   
    23   12   13 ar  
    24   12   37 1   
    25   13   14 1   
    26   13   15 ar  
    27   15   16 1   
    28   16   17 2   
    29   16   18 1   
    30   18   19 2   
    31   18   20 1   
    32   19   23 1   
    33   19   38 1   
    34   20   21 ar  
    35   20   22 ar  
    36   21   26 ar  
    37   21   39 1   
    38   22   23 1   
    39   22   24 ar  
    40   23   41 1   
    41   24   25 ar  
    42   25   26 ar  
    43   25   40 1   
    44   26   27 1   
@<TRIPOS>SUBSTRUCTURE
     1 324         1 TEMP              0 ****  ****    0 ROOT
