@<TRIPOS>MOLECULE
324
   41    43     1     0     0
SMALL
bcc


@<TRIPOS>ATOM
      1 O24        -5.4500   -1.0720    0.0850 o         1 324     -0.643300
      2 S22        -4.9320   -0.1310   -0.8230 s6        1 324      1.458900
      3 O23        -5.4750   -0.1230   -2.1220 o         1 324     -0.643300
      4 C25        -5.0870    1.4320   -0.1410 c3        1 324     -0.330600
      5 C26        -6.5460    1.7830    0.0680 c3        1 324     -0.056400
      6 C27        -6.7060    3.1540    0.6690 c3        1 324     -0.088100
      7 N21        -3.3120   -0.2960   -0.9790 nh        1 324     -0.773500
      8 C17        -2.3640   -0.5490    0.0210 ca        1 324      0.113600
      9 C18        -1.0310   -0.0520   -0.1120 ca        1 324      0.134900
     10 F20        -0.6910    0.6540   -1.2180 f         1 324     -0.125900
     11 C16        -2.6790   -1.3000    1.1730 ca        1 324     -0.123000
     12 C15        -1.7330   -1.5260    2.1600 ca        1 324     -0.155000
     13 C14        -0.4250   -1.0270    2.0250 ca        1 324      0.155900
     14 F19         0.4760   -1.2580    3.0070 f         1 324     -0.120900
     15 C13        -0.0610   -0.2980    0.8770 ca        1 324     -0.206600
     16 C11         1.3170    0.2610    0.7310 c         1 324      0.631900
     17 O12         1.5690    1.4110    1.1090 o         1 324     -0.509100
     18 C9          2.3050   -0.6130    0.1300 cc        1 324     -0.226400
     19 C8          2.1210   -1.9280   -0.3250 cd        1 324     -0.023100
     20 C2          3.6900   -0.2770   -0.1140 ca        1 324     -0.147100
     21 C1          4.4870    0.8490    0.1040 ca        1 324     -0.036000
     22 C3          4.2980   -1.4460   -0.7270 ca        1 324      0.406800
     23 N7          3.3020   -2.4370   -0.8400 na        1 324     -0.270100
     24 N4          5.6080   -1.5250   -1.1110 nb        1 324     -0.653000
     25 C5          6.3270   -0.4230   -0.8810 ca        1 324      0.421200
     26 C6          5.8200    0.7680   -0.2860 ca        1 324     -0.123900
     27 CL10        6.8670    2.0810   -0.0640 cl        1 324     -0.072400
     28 H25        -4.5620    1.5190    0.8470 h1        1 324      0.117200
     29 H25A       -4.6280    2.2230   -0.7910 h1        1 324      0.117200
     30 H26        -7.0810    1.7410   -0.9200 hc        1 324      0.060700
     31 H26A       -7.0170    1.0180    0.7440 hc        1 324      0.060700
     32 H27        -6.1990    3.2120    1.6630 hc        1 324      0.039700
     33 H27A       -6.2620    3.9330    0.0030 hc        1 324      0.039700
     34 H27B       -7.7900    3.3850    0.8110 hc        1 324      0.039700
     35 HN21       -2.8950   -0.1570   -1.8770 hn        1 324      0.464800
     36 H16        -3.6950   -1.7200    1.3050 ha        1 324      0.188000
     37 H15        -1.9990   -2.1020    3.0610 ha        1 324      0.165000
     38 H8          1.2100   -2.5360   -0.3110 h4        1 324      0.179000
     39 H1          4.0560    1.7520    0.5680 ha        1 324      0.179000
     40 H5          7.3890   -0.4800   -1.1890 h4        1 324      0.039100
     41 H14         3.4380   -3.3380   -1.2180 hn        1 324      0.318700
@<TRIPOS>BOND
     1    1    2 2   
     2    2    3 2   
     3    2    4 1   
     4    2    7 1   
     5    4    5 1   
     6    4   28 1   
     7    4   29 1   
     8    5    6 1   
     9    5   30 1   
    10    5   31 1   
    11    6   32 1   
    12    6   33 1   
    13    6   34 1   
    14    7    8 1   
    15    7   35 1   
    16    8    9 ar  
    17    8   11 ar  
    18    9   10 1   
    19    9   15 ar  
    20   11   12 ar  
    21   11   36 1   
    22   12   13 ar  
    23   12   37 1   
    24   13   14 1   
    25   13   15 ar  
    26   15   16 1   
    27   16   17 2   
    28   16   18 1   
    29   18   19 2   
    30   18   20 1   
    31   19   23 1   
    32   19   38 1   
    33   20   21 ar  
    34   20   22 ar  
    35   21   26 ar  
    36   21   39 1   
    37   22   23 1   
    38   22   24 ar  
    39   23   41 1   
    40   24   25 ar  
    41   25   26 ar  
    42   25   40 1   
    43   26   27 1   
@<TRIPOS>SUBSTRUCTURE
     1 324         1 TEMP              0 ****  ****    0 ROOT
