@<TRIPOS>MOLECULE
324
   41    43     1     0     0
SMALL
bcc


@<TRIPOS>ATOM
      1 O24        -0.0400   -0.3010   -0.1130 o         1 324     -0.643300
      2 S22         1.3590   -0.1540   -0.1000 s6        1 324      1.458900
      3 O23         1.9870   -0.0750    1.1570 o         1 324     -0.643300
      4 C25         2.0520   -1.4380   -0.9960 c3        1 324     -0.330600
      5 C26         1.7480   -2.7710   -0.3440 c3        1 324     -0.056400
      6 C27         2.3470   -3.9160   -1.1160 c3        1 324     -0.088100
      7 N21         1.8170    1.1670   -0.9510 nh        1 324     -0.773500
      8 C17         1.3090    1.6330   -2.1710 ca        1 324      0.113600
      9 C18         2.1570    2.3460   -3.0740 ca        1 324      0.134900
     10 F20         3.4490    2.5750   -2.7350 f         1 324     -0.125900
     11 C16        -0.0360    1.4320   -2.5440 ca        1 324     -0.123000
     12 C15        -0.5170    1.8870   -3.7610 ca        1 324     -0.155000
     13 C14         0.3260    2.5810   -4.6480 ca        1 324      0.155900
     14 F19        -0.1690    3.0090   -5.8330 f         1 324     -0.120900
     15 C13         1.6680    2.8290   -4.3020 ca        1 324     -0.206600
     16 C11         2.5820    3.5420   -5.2450 c         1 324      0.631900
     17 O12         3.2750    2.9050   -6.0460 o         1 324     -0.509100
     18 C9          2.5990    4.9890   -5.1540 cc        1 324     -0.226400
     19 C8          1.8500    5.8010   -4.2870 cd        1 324     -0.023100
     20 C2          3.4110    5.8730   -5.9580 ca        1 324     -0.147100
     21 C1          4.3480    5.7010   -6.9790 ca        1 324     -0.036000
     22 C3          3.1040    7.2270   -5.5240 ca        1 324      0.406800
     23 N7          2.1420    7.1380   -4.4970 na        1 324     -0.270100
     24 N4          3.6720    8.3540   -6.0470 nb        1 324     -0.653000
     25 C5          4.5610    8.1360   -7.0200 ca        1 324      0.421200
     26 C6          4.9260    6.8490   -7.5120 ca        1 324     -0.123900
     27 CL10        6.0730    6.7420   -8.7530 cl        1 324     -0.072400
     28 H25         1.6770   -1.4720   -2.0530 h1        1 324      0.117200
     29 H25A        3.1670   -1.3390   -1.0810 h1        1 324      0.117200
     30 H26         2.1540   -2.7710    0.7050 hc        1 324      0.060700
     31 H26A        0.6330   -2.9040   -0.2780 hc        1 324      0.060700
     32 H27         2.1070   -4.8840   -0.6120 hc        1 324      0.039700
     33 H27A        1.9410   -3.9480   -2.1560 hc        1 324      0.039700
     34 H27B        3.4580   -3.8140   -1.1750 hc        1 324      0.039700
     35 HN21        2.5880    1.7110   -0.6220 hn        1 324      0.464800
     36 H16        -0.7300    0.9020   -1.8630 ha        1 324      0.188000
     37 H15        -1.5660    1.7080   -4.0440 ha        1 324      0.165000
     38 H8          1.1200    5.5000   -3.5290 h4        1 324      0.179000
     39 H1          4.6030    4.6880   -7.3320 ha        1 324      0.179000
     40 H5          5.0250    9.0450   -7.4480 h4        1 324      0.039100
     41 H14         1.7480    7.9080   -4.0200 hn        1 324      0.318700
@<TRIPOS>BOND
     1    1    2 2   
     2    2    3 2   
     3    2    4 1   
     4    2    7 1   
     5    4    5 1   
     6    4   28 1   
     7    4   29 1   
     8    5    6 1   
     9    5   30 1   
    10    5   31 1   
    11    6   32 1   
    12    6   33 1   
    13    6   34 1   
    14    7    8 1   
    15    7   35 1   
    16    8    9 ar  
    17    8   11 ar  
    18    9   10 1   
    19    9   15 ar  
    20   11   12 ar  
    21   11   36 1   
    22   12   13 ar  
    23   12   37 1   
    24   13   14 1   
    25   13   15 ar  
    26   15   16 1   
    27   16   17 2   
    28   16   18 1   
    29   18   19 2   
    30   18   20 1   
    31   19   23 1   
    32   19   38 1   
    33   20   21 ar  
    34   20   22 ar  
    35   21   26 ar  
    36   21   39 1   
    37   22   23 1   
    38   22   24 ar  
    39   23   41 1   
    40   24   25 ar  
    41   25   26 ar  
    42   25   40 1   
    43   26   27 1   
@<TRIPOS>SUBSTRUCTURE
     1 324         1 TEMP              0 ****  ****    0 ROOT
