@<TRIPOS>MOLECULE
325
   47    50     1     0     0
SMALL
bcc


@<TRIPOS>ATOM
      1 O30        -0.0820    0.3160    0.0180 o         1 325     -0.508100
      2 C16         1.1200    0.0290   -0.0210 c         1 325      0.630900
      3 C17         1.9190   -0.0530    1.2380 ca        1 325     -0.208600
      4 C22         2.4580    1.1160    1.8080 ca        1 325      0.138900
      5 F28         2.2700    2.3060    1.1880 f         1 325     -0.124900
      6 C21         3.1860    1.0700    3.0360 ca        1 325      0.108600
      7 N23         3.7040    2.2500    3.5890 nu        1 325     -0.776500
      8 S24         5.0680    2.4420    4.4660 s6        1 325      1.457900
      9 C26         6.2930    2.4060    3.2630 c3        1 325     -0.320600
     10 C31         7.6510    2.6070    3.8850 c3        1 325     -0.077100
     11 O27         5.0270    3.7300    5.0330 o         1 325     -0.641800
     12 O25         5.2700    1.3560    5.3360 o         1 325     -0.641800
     13 C20         3.3380   -0.1800    3.6710 ca        1 325     -0.116000
     14 C19         2.8140   -1.3350    3.1120 ca        1 325     -0.158000
     15 C18         2.1010   -1.2820    1.9010 ca        1 325      0.157900
     16 F29         1.5890   -2.4230    1.3850 f         1 325     -0.121900
     17 C13         1.8320   -0.2360   -1.2560 cc        1 325     -0.224400
     18 C11         1.2650   -0.1650   -2.5850 ca        1 325     -0.153100
     19 C12         0.0090    0.1410   -3.1100 ca        1 325     -0.031000
     20 C10         2.3330   -0.5080   -3.5090 ca        1 325      0.410800
     21 N15         3.4900   -0.7690   -2.7480 na        1 325     -0.273100
     22 C14         3.1760   -0.6060   -1.4080 cd        1 325     -0.028100
     23 N9          2.1920   -0.5540   -4.8670 nb        1 325     -0.661000
     24 C8          0.9690   -0.2530   -5.3120 ca        1 325      0.423200
     25 C7         -0.1490    0.0990   -4.4960 cp        1 325     -0.166300
     26 C6         -1.4270    0.4030   -5.1190 cp        1 325     -0.147300
     27 C5         -2.6410   -0.0030   -4.5140 ca        1 325      0.407200
     28 N4         -3.8540    0.2440   -5.0370 nb        1 325     -0.660000
     29 C3         -3.9040    0.9180   -6.2020 ca        1 325      0.396200
     30 C2         -2.7590    1.3670   -6.8850 ca        1 325     -0.245300
     31 C1         -1.5060    1.1040   -6.3320 ca        1 325     -0.087000
     32 HN23        3.1470    3.0510    3.3700 hn        1 325      0.467800
     33 H26         6.1400    3.2010    2.4860 h1        1 325      0.111200
     34 H26A        6.3010    1.4350    2.7010 h1        1 325      0.111200
     35 H31         8.4460    2.5820    3.1020 hc        1 325      0.056367
     36 H31A        7.8650    1.7980    4.6270 hc        1 325      0.056367
     37 H31B        7.7010    3.5970    4.4040 hc        1 325      0.056367
     38 H20         3.8780   -0.2530    4.6350 ha        1 325      0.188000
     39 H19         2.9400   -2.3030    3.6220 ha        1 325      0.165000
     40 H12        -0.8190    0.4110   -2.4340 ha        1 325      0.171000
     41 H14         3.9330   -0.7670   -0.6340 h4        1 325      0.176000
     42 H8          0.8490   -0.2990   -6.4120 h4        1 325      0.028100
     43 H5         -2.6320   -0.5600   -3.5590 h4        1 325      0.030100
     44 H3         -4.9150    1.1060   -6.6060 h4        1 325      0.024100
     45 H2         -2.8550    1.9160   -7.8310 ha        1 325      0.145000
     46 H1         -0.5910    1.4490   -6.8350 ha        1 325      0.140000
     47 H16         4.3640   -1.0410   -3.1180 hn        1 325      0.316700
@<TRIPOS>BOND
     1    1    2 2   
     2    2    3 1   
     3    2   17 1   
     4    3    4 ar  
     5    3   15 ar  
     6    4    5 1   
     7    4    6 ar  
     8    6    7 1   
     9    6   13 ar  
    10    7    8 1   
    11    7   32 1   
    12    8    9 1   
    13    8   11 2   
    14    8   12 2   
    15    9   10 1   
    16    9   33 1   
    17    9   34 1   
    18   10   35 1   
    19   10   36 1   
    20   10   37 1   
    21   13   14 ar  
    22   13   38 1   
    23   14   15 ar  
    24   14   39 1   
    25   15   16 1   
    26   17   18 1   
    27   17   22 2   
    28   18   19 ar  
    29   18   20 ar  
    30   19   25 ar  
    31   19   40 1   
    32   20   21 1   
    33   20   23 ar  
    34   21   22 1   
    35   21   47 1   
    36   22   41 1   
    37   23   24 ar  
    38   24   25 ar  
    39   24   42 1   
    40   25   26 1   
    41   26   27 ar  
    42   26   31 ar  
    43   27   28 ar  
    44   27   43 1   
    45   28   29 ar  
    46   29   30 ar  
    47   29   44 1   
    48   30   31 ar  
    49   30   45 1   
    50   31   46 1   
@<TRIPOS>SUBSTRUCTURE
     1 325         1 TEMP              0 ****  ****    0 ROOT
