@<TRIPOS>MOLECULE
325
   48    51     1     0     0
SMALL
bcc


@<TRIPOS>ATOM
      1 O30         0.0880    0.2230    0.2150 o         1 325     -0.491100
      2 C16         1.2420   -0.2170    0.1860 c         1 325      0.624900
      3 C17         2.0190   -0.2560    1.4730 ca        1 325     -0.208600
      4 C22         2.3160    0.9600    2.1170 ca        1 325      0.210900
      5 F28         1.9740    2.1360    1.5460 f         1 325     -0.106900
      6 C21         2.9870    0.9720    3.3730 ca        1 325     -0.149400
      7 N23         3.2410    2.2240    4.0600 n4        1 325     -0.559300
      8 S24         5.0890    2.6820    4.1550 s6        1 325      1.387900
      9 C26         5.4250    2.7740    2.5330 c3        1 325     -0.382600
     10 C31         6.9090    3.0160    2.3200 c3        1 325     -0.094100
     11 O27         4.9950    3.9100    4.7750 o         1 325     -0.552800
     12 O25         5.6260    1.5920    4.8030 o         1 325     -0.552800
     13 C20         3.3330   -0.2520    3.9820 ca        1 325     -0.043000
     14 C19         3.0430   -1.4490    3.3550 ca        1 325     -0.166000
     15 C18         2.3770   -1.4630    2.1070 ca        1 325      0.236900
     16 F29         2.0860   -2.6490    1.5420 f         1 325     -0.082900
     17 C13         1.9150   -0.6570   -1.0090 cc        1 325     -0.246400
     18 C11         1.4030   -0.4790   -2.3520 ca        1 325     -0.151100
     19 C12         0.2570    0.0920   -2.9100 ca        1 325     -0.045000
     20 C10         2.3820   -1.0690   -3.2460 ca        1 325      0.407800
     21 N15         3.4360   -1.5770   -2.4560 na        1 325     -0.254100
     22 C14         3.1420   -1.3350   -1.1300 cd        1 325     -0.031100
     23 N9          2.2630   -1.1020   -4.6070 nb        1 325     -0.647000
     24 C8          1.1490   -0.5430   -5.0850 ca        1 325      0.430200
     25 C7          0.1210    0.0640   -4.2970 cp        1 325     -0.139300
     26 C6         -1.0470    0.6310   -4.9510 cp        1 325     -0.167300
     27 C5         -2.3270    0.5270   -4.3570 ca        1 325      0.411200
     28 N4         -3.4460    1.0320   -4.9050 nb        1 325     -0.657000
     29 C3         -3.3300    1.6670   -6.0870 ca        1 325      0.407200
     30 C2         -2.1050    1.8240   -6.7620 ca        1 325     -0.241300
     31 C1         -0.9510    1.2980   -6.1830 ca        1 325     -0.081000
     32 HN23        2.8690    2.1410    5.0120 hn        1 325      0.464300
     33 H26         4.8770    3.6080    2.0020 h1        1 325      0.160700
     34 H26A        5.1520    1.8470    1.9510 h1        1 325      0.160700
     35 H31         7.2230    3.9910    2.7700 hc        1 325      0.084033
     36 H31A        7.5150    2.1850    2.7590 hc        1 325      0.084033
     37 H31B        7.1300    3.0610    1.2230 hc        1 325      0.084033
     38 H20         3.8520   -0.2660    4.9600 ha        1 325      0.184000
     39 H19         3.3120   -2.4080    3.8320 ha        1 325      0.194000
     40 H12        -0.5070    0.5460   -2.2580 ha        1 325      0.169000
     41 H14         3.8130   -1.6780   -0.3370 h4        1 325      0.165000
     42 H8          1.0440   -0.5810   -6.1870 h4        1 325      0.040100
     43 H5         -2.4590    0.0020   -3.3930 h4        1 325      0.027100
     44 H3         -4.2680    2.0690   -6.5110 h4        1 325      0.032100
     45 H2         -2.0640    2.3510   -7.7240 ha        1 325      0.152000
     46 H1          0.0230    1.4110   -6.6810 ha        1 325      0.141000
     47 H16         4.2130   -2.0810   -2.8050 hn        1 325      0.325700
     48 H232        2.7040    2.9670    3.6050 hn        1 325      0.464300
@<TRIPOS>BOND
     1    1    2 2   
     2    2    3 1   
     3    2   17 1   
     4    3    4 ar  
     5    3   15 ar  
     6    4    5 1   
     7    4    6 ar  
     8    6    7 1   
     9    6   13 ar  
    10    7    8 1   
    11    7   32 1   
    12    7   48 1   
    13    8    9 1   
    14    8   11 2   
    15    8   12 2   
    16    9   10 1   
    17    9   33 1   
    18    9   34 1   
    19   10   35 1   
    20   10   36 1   
    21   10   37 1   
    22   13   14 ar  
    23   13   38 1   
    24   14   15 ar  
    25   14   39 1   
    26   15   16 1   
    27   17   18 1   
    28   17   22 2   
    29   18   19 ar  
    30   18   20 ar  
    31   19   25 ar  
    32   19   40 1   
    33   20   21 1   
    34   20   23 ar  
    35   21   22 1   
    36   21   47 1   
    37   22   41 1   
    38   23   24 ar  
    39   24   25 ar  
    40   24   42 1   
    41   25   26 1   
    42   26   27 ar  
    43   26   31 ar  
    44   27   28 ar  
    45   27   43 1   
    46   28   29 ar  
    47   29   30 ar  
    48   29   44 1   
    49   30   31 ar  
    50   30   45 1   
    51   31   46 1   
@<TRIPOS>SUBSTRUCTURE
     1 325         1 TEMP              0 ****  ****    0 ROOT
