@<TRIPOS>MOLECULE
325
   47    50     1     0     0
SMALL
bcc


@<TRIPOS>ATOM
      1 O30        -0.0790    0.3030    0.0200 o         1 325     -0.508100
      2 C16         1.1240    0.0230   -0.0230 c         1 325      0.630900
      3 C17         1.9260   -0.0610    1.2350 ca        1 325     -0.208600
      4 C22         2.4600    1.1090    1.8090 ca        1 325      0.138900
      5 F28         2.2640    2.3010    1.1950 f         1 325     -0.124900
      6 C21         3.1900    1.0620    3.0360 ca        1 325      0.108600
      7 N23         3.7020    2.2410    3.5940 nh        1 325     -0.776500
      8 S24         5.0670    2.4370    4.4690 s6        1 325      1.457900
      9 C26         6.2900    2.4130    3.2640 c3        1 325     -0.320600
     10 C31         7.6480    2.6190    3.8850 c3        1 325     -0.077100
     11 O27         5.0190    3.7220    5.0420 o         1 325     -0.641800
     12 O25         5.2760    1.3480    5.3340 o         1 325     -0.641800
     13 C20         3.3490   -0.1900    3.6660 ca        1 325     -0.116000
     14 C19         2.8310   -1.3450    3.1020 ca        1 325     -0.158000
     15 C18         2.1150   -1.2910    1.8920 ca        1 325      0.157900
     16 F29         1.6090   -2.4330    1.3720 f         1 325     -0.121900
     17 C13         1.8360   -0.2330   -1.2600 cc        1 325     -0.224400
     18 C11         1.2660   -0.1610   -2.5880 ca        1 325     -0.153100
     19 C12         0.0070    0.1400   -3.1100 ca        1 325     -0.031000
     20 C10         2.3350   -0.4930   -3.5150 ca        1 325      0.410800
     21 N15         3.4950   -0.7510   -2.7560 na        1 325     -0.273100
     22 C14         3.1830   -0.5950   -1.4150 cd        1 325     -0.028100
     23 N9          2.1910   -0.5350   -4.8730 nb        1 325     -0.661000
     24 C8          0.9660   -0.2400   -5.3150 ca        1 325      0.423200
     25 C7         -0.1520    0.1020   -4.4950 cp        1 325     -0.166300
     26 C6         -1.4330    0.4010   -5.1150 cp        1 325     -0.147300
     27 C5         -2.6430   -0.0140   -4.5090 ca        1 325      0.407200
     28 N4         -3.8590    0.2280   -5.0290 nb        1 325     -0.660000
     29 C3         -3.9150    0.9060   -6.1920 ca        1 325      0.396200
     30 C2         -2.7740    1.3650   -6.8740 ca        1 325     -0.245300
     31 C1         -1.5190    1.1060   -6.3250 ca        1 325     -0.087000
     32 HN23        3.1410    3.0400    3.3790 hn        1 325      0.467800
     33 H26         6.3030    1.4440    2.6990 h1        1 325      0.111200
     34 H26A        6.1310    3.2110    2.4910 h1        1 325      0.111200
     35 H31         7.6930    3.6070    4.4080 hc        1 325      0.056367
     36 H31A        8.4420    2.6030    3.1000 hc        1 325      0.056367
     37 H31B        7.8680    1.8080    4.6240 hc        1 325      0.056367
     38 H20         3.8910   -0.2650    4.6280 ha        1 325      0.188000
     39 H19         2.9620   -2.3150    3.6070 ha        1 325      0.165000
     40 H12        -0.8210    0.4030   -2.4310 ha        1 325      0.171000
     41 H14         3.9410   -0.7550   -0.6430 h4        1 325      0.176000
     42 H8          0.8450   -0.2820   -6.4140 h4        1 325      0.028100
     43 H5         -2.6300   -0.5750   -3.5560 h4        1 325      0.030100
     44 H3         -4.9280    1.0900   -6.5930 h4        1 325      0.024100
     45 H2         -2.8740    1.9160   -7.8180 ha        1 325      0.145000
     46 H1         -0.6070    1.4590   -6.8290 ha        1 325      0.140000
     47 H16         4.3700   -1.0160   -3.1290 hn        1 325      0.316700
@<TRIPOS>BOND
     1    1    2 2   
     2    2    3 1   
     3    2   17 1   
     4    3    4 ar  
     5    3   15 ar  
     6    4    5 1   
     7    4    6 ar  
     8    6    7 1   
     9    6   13 ar  
    10    7    8 1   
    11    7   32 1   
    12    8    9 1   
    13    8   11 2   
    14    8   12 2   
    15    9   10 1   
    16    9   33 1   
    17    9   34 1   
    18   10   35 1   
    19   10   36 1   
    20   10   37 1   
    21   13   14 ar  
    22   13   38 1   
    23   14   15 ar  
    24   14   39 1   
    25   15   16 1   
    26   17   18 1   
    27   17   22 2   
    28   18   19 ar  
    29   18   20 ar  
    30   19   25 ar  
    31   19   40 1   
    32   20   21 1   
    33   20   23 ar  
    34   21   22 1   
    35   21   47 1   
    36   22   41 1   
    37   23   24 ar  
    38   24   25 ar  
    39   24   42 1   
    40   25   26 1   
    41   26   27 ar  
    42   26   31 ar  
    43   27   28 ar  
    44   27   43 1   
    45   28   29 ar  
    46   29   30 ar  
    47   29   44 1   
    48   30   31 ar  
    49   30   45 1   
    50   31   46 1   
@<TRIPOS>SUBSTRUCTURE
     1 325         1 TEMP              0 ****  ****    0 ROOT
