@<TRIPOS>MOLECULE
325
   47    38     1     0     0
SMALL
bcc


@<TRIPOS>ATOM
      1 O30        -1.7190    1.6130    0.5530 o         1 325     -0.272000
      2 C16        -0.5070    1.5280    0.5330 c1        1 325      0.353000
      3 C17         0.2690    1.4750    1.8320 c1        1 325     -0.185000
      4 C22         0.5440    0.2520    2.4250 c1        1 325      0.100000
      5 F28         0.2190   -0.8850    1.7960 f         1 325     -0.093000
      6 C21         1.1790    0.2060    3.6570 c2        1 325      0.034000
      7 N23         1.3660   -1.0400    4.3100 n3        1 325     -0.826000
      8 S24         2.8060   -1.8200    4.1950 s4        1 325      2.034800
      9 C26         2.7460   -3.3550    5.0830 c2        1 325     -0.858000
     10 C31         3.6080   -4.3790    4.3780 c3        1 325     -0.192000
     11 O27         3.1800   -2.0250    2.8240 o         1 325     -0.535400
     12 O25         3.8850   -0.9920    4.6570 o         1 325     -0.535400
     13 C20         1.5390    1.3820    4.2950 c1        1 325     -0.120000
     14 C19         1.2640    2.6050    3.7020 c1        1 325     -0.154000
     15 C18         0.6290    2.6510    2.4710 c2        1 325      0.122000
     16 F29         0.3450    3.8330    1.9090 f         1 325     -0.087000
     17 C13         0.2300    1.5110   -0.7900 c2        1 325     -0.220000
     18 C11        -0.2990    1.2550   -2.0370 c1        1 325     -0.076000
     19 C12        -1.5960    1.0270   -2.4670 c1        1 325     -0.032000
     20 C10         0.7330    1.2390   -2.9390 c1        1 325      0.019000
     21 N15         1.9080    1.4860   -2.2490 n1        1 325     -0.186000
     22 C14         1.5960    1.6530   -0.9280 c1        1 325      0.004000
     23 N9          0.4800    0.9960   -4.2760 n1        1 325     -0.135000
     24 C8         -0.7970    0.7710   -4.7000 c1        1 325     -0.043000
     25 C7         -1.8450    0.7870   -3.7880 c1        1 325     -0.102000
     26 C6         -3.1370    0.5130   -4.5250 c2        1 325     -0.080000
     27 C5         -3.9430    1.5670   -4.9260 c2        1 325     -0.058000
     28 N4         -5.1230    1.3190   -5.5610 n1        1 325     -0.135000
     29 C3         -5.5110    0.0360   -5.8040 c1        1 325     -0.125000
     30 C2         -4.7060   -1.0190   -5.4040 c1        1 325     -0.125000
     31 C1         -3.5240   -0.7730   -4.7680 c1        1 325     -0.087000
     32 HN23        0.6890   -1.4040    4.8000 hn        1 325      0.254000
     33 H26         1.8230   -3.6740    5.1190 ha        1 325      0.161000
     34 H26A        3.0800   -3.2190    5.9920 ha        1 325      0.161000
     35 H31         3.2520   -4.5420    3.4790 hc        1 325      0.091667
     36 H31A        3.6030   -5.2170    4.8880 hc        1 325      0.091667
     37 H31B        4.5260   -4.0430    4.3100 hc        1 325      0.091667
     38 H20         1.9860    1.3500    5.1620 ha        1 325      0.187000
     39 H19         1.5170    3.4340    4.1530 ha        1 325      0.164000
     40 H12        -2.3320    1.0380   -1.8260 ha        1 325      0.170000
     41 H14         2.2290    1.8370   -0.2080 DU        1 325      0.224000
     42 H8         -0.9750    0.6000   -5.6450 ha        1 325      0.164000
     43 H5         -3.6660    2.4860   -4.7530 h4        1 325      0.166000
     44 H3         -6.3560   -0.1400   -6.2590 ha        1 325      0.152000
     45 H2         -4.9840   -1.9390   -5.5780 ha        1 325      0.152000
     46 H1         -2.9570   -1.5150   -4.4860 ha        1 325      0.140000
     47 H16         2.7430    1.5300   -2.6110 DU        1 325      0.224000
@<TRIPOS>BOND
     1    1    2 1   
     2    2   17 1   
     3    3    4 1   
     4    3   15 1   
     5    4    6 1   
     6    6    7 1   
     7    6   13 1   
     8    7    8 1   
     9    7   32 1   
    10    8   11 1   
    11    8   12 1   
    12    9   10 1   
    13    9   33 1   
    14    9   34 1   
    15   10   35 1   
    16   10   36 1   
    17   10   37 1   
    18   13   38 1   
    19   14   15 1   
    20   14   39 1   
    21   15   16 1   
    22   17   18 1   
    23   17   22 1   
    24   18   20 1   
    25   19   25 1   
    26   19   40 1   
    27   21   22 1   
    28   23   24 1   
    29   24   42 1   
    30   25   26 1   
    31   26   27 1   
    32   26   31 1   
    33   27   28 1   
    34   27   43 1   
    35   29   30 1   
    36   29   44 1   
    37   30   45 1   
    38   31   46 1   
@<TRIPOS>SUBSTRUCTURE
     1 325         1 TEMP              0 ****  ****    0 ROOT
