@<TRIPOS>MOLECULE
325
   47    50     1     0     0
SMALL
bcc


@<TRIPOS>ATOM
      1 O30        -0.9280   -1.8610    0.0680 o         1 325     -0.508100
      2 C16        -0.3290   -0.9230   -0.4690 c         1 325      0.630900
      3 C17         1.1390   -1.0120   -0.7290 ca        1 325     -0.208600
      4 C22         2.0550   -0.7010    0.2940 ca        1 325      0.138900
      5 F28         1.5920   -0.2930    1.5000 f         1 325     -0.124900
      6 C21         3.4630   -0.8240    0.0860 ca        1 325      0.108600
      7 N23         4.3540   -0.5190    1.1240 nh        1 325     -0.776500
      8 S24         5.8570    0.1110    1.0150 s6        1 325      1.457900
      9 C26         5.5440    1.7750    0.7240 c3        1 325     -0.320600
     10 C31         6.8350    2.5460    0.6260 c3        1 325     -0.077100
     11 O27         6.4640   -0.0220    2.2780 o         1 325     -0.641800
     12 O25         6.5470   -0.4100   -0.0950 o         1 325     -0.641800
     13 C20         3.9110   -1.2800   -1.1710 ca        1 325     -0.116000
     14 C19         3.0140   -1.5820   -2.1830 ca        1 325     -0.158000
     15 C18         1.6290   -1.4570   -1.9710 ca        1 325      0.157900
     16 F29         0.7760   -1.7720   -2.9740 f         1 325     -0.121900
     17 C13        -0.9830    0.3070   -0.8750 cc        1 325     -0.224400
     18 C11        -2.3810    0.6210   -0.6760 ca        1 325     -0.153100
     19 C12        -3.4710   -0.0360   -0.1040 ca        1 325     -0.031000
     20 C10        -2.5900    1.9460   -1.2350 ca        1 325      0.410800
     21 N15        -1.3550    2.3960   -1.7440 na        1 325     -0.273100
     22 C14        -0.4080    1.4090   -1.5250 cd        1 325     -0.028100
     23 N9         -3.7910    2.5980   -1.2420 nb        1 325     -0.661000
     24 C8         -4.7980    1.9210   -0.6830 ca        1 325      0.423200
     25 C7         -4.7030    0.6190   -0.1030 cp        1 325     -0.166300
     26 C6         -5.8860    0.0010    0.4720 cp        1 325     -0.147300
     27 C5         -6.1140   -1.3900    0.3340 ca        1 325      0.407200
     28 N4         -7.1860   -2.0230    0.8400 nb        1 325     -0.660000
     29 C3         -8.0860   -1.2820    1.5160 ca        1 325      0.396200
     30 C2         -7.9540    0.1040    1.7120 ca        1 325     -0.245300
     31 C1         -6.8370    0.7500    1.1810 ca        1 325     -0.087000
     32 HN23        3.9670   -0.7030    2.0270 hn        1 325      0.467800
     33 H26         4.9640    1.9330   -0.2230 h1        1 325      0.111200
     34 H26A        4.9210    2.2310    1.5380 h1        1 325      0.111200
     35 H31         7.4620    2.1560   -0.2140 hc        1 325      0.056367
     36 H31A        6.6290    3.6270    0.4370 hc        1 325      0.056367
     37 H31B        7.4140    2.4620    1.5790 hc        1 325      0.056367
     38 H20         4.9940   -1.4080   -1.3630 ha        1 325      0.188000
     39 H19         3.3800   -1.9400   -3.1580 ha        1 325      0.165000
     40 H12        -3.3410   -1.0390    0.3340 ha        1 325      0.171000
     41 H14         0.6280    1.5470   -1.8490 h4        1 325      0.176000
     42 H8         -5.7730    2.4430   -0.6960 h4        1 325      0.028100
     43 H5         -5.3950   -2.0240   -0.2170 h4        1 325      0.030100
     44 H3         -8.9550   -1.8320    1.9200 h4        1 325      0.024100
     45 H2         -8.7140    0.6620    2.2730 ha        1 325      0.145000
     46 H1         -6.6990    1.8320    1.3250 ha        1 325      0.140000
     47 H16        -1.2090    3.2610   -2.1960 hn        1 325      0.316700
@<TRIPOS>BOND
     1    1    2 2   
     2    2    3 1   
     3    2   17 1   
     4    3    4 ar  
     5    3   15 ar  
     6    4    5 1   
     7    4    6 ar  
     8    6    7 1   
     9    6   13 ar  
    10    7    8 1   
    11    7   32 1   
    12    8    9 1   
    13    8   11 2   
    14    8   12 2   
    15    9   10 1   
    16    9   33 1   
    17    9   34 1   
    18   10   35 1   
    19   10   36 1   
    20   10   37 1   
    21   13   14 ar  
    22   13   38 1   
    23   14   15 ar  
    24   14   39 1   
    25   15   16 1   
    26   17   18 1   
    27   17   22 2   
    28   18   19 ar  
    29   18   20 ar  
    30   19   25 ar  
    31   19   40 1   
    32   20   21 1   
    33   20   23 ar  
    34   21   22 1   
    35   21   47 1   
    36   22   41 1   
    37   23   24 ar  
    38   24   25 ar  
    39   24   42 1   
    40   25   26 1   
    41   26   27 ar  
    42   26   31 ar  
    43   27   28 ar  
    44   27   43 1   
    45   28   29 ar  
    46   29   30 ar  
    47   29   44 1   
    48   30   31 ar  
    49   30   45 1   
    50   31   46 1   
@<TRIPOS>SUBSTRUCTURE
     1 325         1 TEMP              0 ****  ****    0 ROOT
