@<TRIPOS>MOLECULE
326
   46    48     1     0     0
SMALL
bcc


@<TRIPOS>ATOM
      1 C1          1.0040   -0.4600    5.6460 ca        1 326     -0.047000
      2 C2         -0.0780    0.3580    5.9560 ca        1 326     -0.280500
      3 C3         -0.7840    0.9370    4.9020 ca        1 326     -0.040000
      4 C4         -0.3930    0.7520    3.5790 ca        1 326     -0.161000
      5 C5          0.7340   -0.0400    3.2760 ca        1 326      0.053800
      6 C6          1.4270   -0.6840    4.3300 ca        1 326     -0.107300
      7 S7         -0.5110    0.6520    7.6360 s6        1 326      1.457100
      8 O8         -0.1780   -0.5400    8.3320 o         1 326     -0.753200
      9 O9         -1.9000    0.9410    7.6390 o         1 326     -0.753200
     10 O10         0.2780    1.7560    8.0520 o         1 326     -0.753200
     11 N11         1.1590   -0.1770    1.9190 na        1 326      0.129300
     12 N12         2.4630   -0.0640    1.5590 nc        1 326     -0.550800
     13 C13         2.5230   -0.0440    0.2030 cd        1 326      0.358600
     14 C14         1.1810   -0.0900   -0.3620 cd        1 326     -0.154900
     15 C15         0.3240   -0.1440    0.7730 cc        1 326      0.174800
     16 C17         2.5780   -1.5880    4.0990 c3        1 326     -0.033800
     17 O17        -1.0190   -0.2240    0.8800 oh        1 326     -0.493100
     18 N19        -0.1970    0.2550   -2.1170 ne        1 326     -0.198400
     19 N20         0.8920   -0.1800   -1.7370 nf        1 326     -0.166400
     20 C21         3.7580    0.0330   -0.5980 c3        1 326     -0.113400
     21 O22        -4.0640   -0.8630   -2.7360 o         1 326     -0.848800
     22 C24        -1.9080   -0.4750   -3.6820 ca        1 326     -0.067600
     23 C25        -0.6150    0.0580   -3.4770 ca        1 326      0.082400
     24 O26        -2.3160   -1.4700   -1.5120 o         1 326     -0.848800
     25 C27        -2.3770   -0.5700   -4.9970 ca        1 326     -0.153000
     26 C28        -1.5950   -0.1700   -6.0750 ca        1 326     -0.060000
     27 C29        -0.3080    0.3380   -5.8850 ca        1 326     -0.304500
     28 C30         0.1710    0.4450   -4.5810 ca        1 326     -0.044000
     29 S31         0.6550    0.8080   -7.2630 s6        1 326      1.455100
     30 O32         1.5870    1.7780   -6.7990 o         1 326     -0.759867
     31 O33        -0.2570    1.3380   -8.2230 o         1 326     -0.759867
     32 O34         1.2930   -0.3700   -7.7410 o         1 326     -0.759867
     33 H1          1.5390   -0.9590    6.4730 ha        1 326      0.137000
     34 H3         -1.6730    1.5500    5.1280 ha        1 326      0.143000
     35 H4         -0.9770    1.2110    2.7640 ha        1 326      0.151000
     36 H171        2.3800   -2.2860    3.2490 hc        1 326      0.034367
     37 H172        3.4990   -0.9970    3.8650 hc        1 326      0.034367
     38 H173        2.7840   -2.2030    5.0110 hc        1 326      0.034367
     39 H17        -1.3850   -0.5480    0.0150 ho        1 326      0.524000
     40 H211        3.7490   -0.7790   -1.3690 hc        1 326      0.043033
     41 H212        3.7950    1.0180   -1.1290 hc        1 326      0.043033
     42 H213        4.6760   -0.0720    0.0290 hc        1 326      0.043033
     43 H27        -3.3950   -0.9600   -5.1510 ha        1 326      0.133000
     44 H28        -1.9910   -0.2390   -7.1010 ha        1 326      0.122000
     45 H30         1.1810    0.8620   -4.4250 ha        1 326      0.140000
     46 C23        -2.8150   -0.9570   -2.5610 c         1 326      0.919200
@<TRIPOS>BOND
     1    1    2 ar  
     2    1    6 ar  
     3    1   33 1   
     4    2    3 ar  
     5    2    7 1   
     6    3    4 ar  
     7    3   34 1   
     8    4    5 ar  
     9    4   35 1   
    10    5    6 ar  
    11    5   11 1   
    12    6   16 1   
    13    7    8 1   
    14    7    9 1   
    15    7   10 1   
    16   11   12 1   
    17   11   15 1   
    18   12   13 2   
    19   13   14 1   
    20   13   20 1   
    21   14   15 2   
    22   14   19 1   
    23   15   17 1   
    24   16   36 1   
    25   16   37 1   
    26   16   38 1   
    27   17   39 1   
    28   18   19 2   
    29   18   23 1   
    30   20   40 1   
    31   20   41 1   
    32   20   42 1   
    33   21   46 1   
    34   22   23 ar  
    35   22   25 ar  
    36   22   46 1   
    37   23   28 ar  
    38   24   46 1   
    39   25   26 ar  
    40   25   43 1   
    41   26   27 ar  
    42   26   44 1   
    43   27   28 ar  
    44   27   29 1   
    45   28   45 1   
    46   29   30 1   
    47   29   31 1   
    48   29   32 1   
@<TRIPOS>SUBSTRUCTURE
     1 326         1 TEMP              0 ****  ****    0 ROOT
