@<TRIPOS>MOLECULE
326
   46    46     1     0     0
SMALL
bcc


@<TRIPOS>ATOM
      1 C1          0.0400    0.7990   -0.4400 c1        1 326     -0.122000
      2 C2          0.9410   -0.2080   -0.8170 c2        1 326     -0.639000
      3 C3          1.7980   -0.6770    0.2880 c2        1 326      0.011000
      4 C4          1.2420   -0.6610    1.5000 c1        1 326     -0.428000
      5 C5          0.1380   -0.0130    1.9300 c2        1 326      0.112000
      6 C6         -0.3760    1.0520    0.9550 c3        1 326     -0.092000
      7 S7         -0.1190   -1.7190   -1.9040 s4        1 326      2.859000
      8 O8         -1.3550   -1.8100   -1.3030 o         1 326     -1.021000
      9 O9          0.7500   -2.7840   -1.7340 o         1 326     -1.021000
     10 O10        -0.0860   -1.1580   -3.1730 o         1 326     -1.021000
     11 N11        -0.5510   -0.3220    3.1100 na        1 326     -0.113000
     12 N12        -1.5450    0.4520    3.6310 n2        1 326     -0.131000
     13 C13        -1.7610    0.0420    4.9030 c2        1 326     -0.021000
     14 C14        -0.8250   -1.0290    5.2680 c2        1 326     -0.176000
     15 C15        -0.0470   -1.2160    4.1060 c2        1 326      0.125000
     16 C17         0.0130    2.4580    1.3600 c3        1 326     -0.175000
     17 O17         0.9100   -2.1530    3.9160 oh        1 326     -0.224000
     18 N19         0.1950   -1.9850    7.0760 n2        1 326     -0.091000
     19 N20        -0.8540   -1.6530    6.5330 n2        1 326      0.010000
     20 C21        -2.7690    0.5830    5.8350 c3        1 326     -0.166000
     21 O22         0.5570    0.3020   10.0880 o         1 326     -0.543000
     22 C24        -0.1000   -1.8930    9.5310 c2        1 326      0.130000
     23 C25         0.1500   -2.6240    8.3830 c2        1 326     -0.204000
     24 O26        -1.3630    0.0910    8.9590 o         1 326     -0.543000
     25 C27         0.1130   -2.5000   10.8780 c3        1 326     -0.083000
     26 C28        -1.0460   -2.8620   11.6410 c1        1 326     -0.024000
     27 C29        -1.9130   -3.2350   12.3900 c1        1 326     -0.763000
     28 C30         0.5230   -3.9760    8.4930 c1        1 326     -0.150000
     29 S31        -3.0510   -3.7990   13.4960 s6        1 326      2.904000
     30 O32        -4.0970   -4.4230   12.7630 o         1 326     -1.083000
     31 O33        -3.5060   -2.6770   14.2450 o         1 326     -1.083000
     32 O34        -2.3510   -4.7310   14.3240 o         1 326     -1.083000
     33 H1         -1.5070    0.9670    0.9540 hc        1 326      0.157000
     34 H3          1.5220    0.0270   -1.7390 ha        1 326      0.147000
     35 H4          2.8540   -0.8970    0.0970 ha        1 326      0.114000
     36 H171       -0.4180    2.6980    2.3620 hc        1 326      0.072000
     37 H172        1.1230    2.5560    1.4170 hc        1 326      0.072000
     38 H173       -0.3720    3.1920    0.6120 hc        1 326      0.072000
     39 H17         1.4460   -1.9100    3.1260 ho        1 326      0.264000
     40 H211       -3.6300   -0.1300    5.8990 hc        1 326      0.104333
     41 H212       -2.3180    0.6720    6.8630 hc        1 326      0.104333
     42 H213       -3.1500    1.5800    5.5080 hc        1 326      0.104333
     43 H27         0.7030   -1.7360   11.4720 hc        1 326      0.133500
     44 H28         0.7430   -3.4350   10.7680 hc        1 326      0.133500
     45 H30         0.6190   -4.5660    7.5690 ha        1 326      0.026000
     46 C23        -0.3430   -0.3810    9.5180 c2        1 326      0.345000
@<TRIPOS>BOND
     1    1    2 1   
     2    1    6 1   
     3    2    3 1   
     4    2   34 1   
     5    3    4 1   
     6    3   35 1   
     7    4    5 1   
     8    5    6 1   
     9    5   11 1   
    10    6   16 1   
    11    6   33 1   
    12    7    8 1   
    13    7    9 1   
    14    7   10 1   
    15   11   12 1   
    16   11   15 1   
    17   12   13 1   
    18   13   14 1   
    19   13   20 1   
    20   14   15 1   
    21   14   19 1   
    22   15   17 1   
    23   16   36 1   
    24   16   37 1   
    25   16   38 1   
    26   17   39 1   
    27   18   19 1   
    28   18   23 1   
    29   20   40 1   
    30   20   41 1   
    31   20   42 1   
    32   21   46 1   
    33   22   23 1   
    34   22   25 1   
    35   22   46 1   
    36   23   28 1   
    37   24   46 1   
    38   25   26 1   
    39   25   43 1   
    40   25   44 1   
    41   26   27 1   
    42   27   29 1   
    43   28   45 1   
    44   29   30 1   
    45   29   31 1   
    46   29   32 1   
@<TRIPOS>SUBSTRUCTURE
     1 326         1 TEMP              0 ****  ****    0 ROOT
