@<TRIPOS>MOLECULE
326
   46    46     1     0     0
SMALL
bcc


@<TRIPOS>ATOM
      1 C1         45.0450  -12.2660  -65.9260 c1        1 326     -0.135000
      2 C2         44.0590  -11.3790  -66.3640 c2        1 326     -0.621000
      3 C3         44.5950  -10.1390  -66.9500 c2        1 326      0.013000
      4 C4         45.7490  -10.2670  -67.6080 c1        1 326     -0.421000
      5 C5         46.6530  -11.2650  -67.5650 c2        1 326      0.097000
      6 C6         46.4410  -12.2480  -66.4080 c3        1 326     -0.086000
      7 S7         42.6590  -12.5100  -67.6010 s4        1 326      2.860000
      8 O8         43.4330  -13.4300  -68.2690 o         1 326     -1.014667
      9 O9         42.1280  -11.4680  -68.3340 o         1 326     -1.014667
     10 O10        41.8310  -12.9950  -66.6040 o         1 326     -1.014667
     11 N11        47.6450  -11.4770  -68.5350 na        1 326     -0.106000
     12 N12        48.6600  -12.3660  -68.3880 n2        1 326     -0.124000
     13 C13        49.5790  -12.1020  -69.3490 c2        1 326     -0.069000
     14 C14        49.1820  -10.9400  -70.1520 c2        1 326     -0.141000
     15 C15        47.9340  -10.5640  -69.5960 c2        1 326      0.099000
     16 C17        47.3840  -12.0070  -65.2480 c3        1 326     -0.174000
     17 O17        47.1220   -9.5720  -70.0270 oh        1 326     -0.215000
     18 N19        49.6250   -9.4280  -71.8060 n2        1 326     -0.009000
     19 N20        49.9930  -10.4420  -71.1850 n2        1 326     -0.118000
     20 C21        50.8170  -12.8700  -69.5810 c3        1 326     -0.133000
     21 O22        51.2360   -6.5850  -75.3910 o         1 326     -0.373000
     22 C24        49.9490   -7.7040  -73.5500 c2        1 326     -0.065000
     23 C25        50.4130   -8.8960  -72.8160 c2        1 326     -0.389000
     24 O26        52.0380   -8.4070  -74.3400 os        1 326     -0.229000
     25 C27        48.8340   -6.9820  -73.4370 c2        1 326     -0.221000
     26 C28      -267.3090   51.6210  420.1660 c1        1 326      0.127000
     27 C29      -268.1380   52.5390  419.8220 c2        1 326     -1.067000
     28 C30        51.6810   -9.2830  -73.3330 c1        1 326     -0.022000
     29 S31      -269.4590   53.2720  420.8250 s6        1 326      2.889000
     30 O32      -270.0270   54.2110  419.9420 o         1 326     -1.057333
     31 O33      -268.8040   53.8420  421.9270 o         1 326     -1.057333
     32 O34      -270.3070   52.2010  421.1470 o         1 326     -1.057333
     33 H1         46.6290  -13.2850  -66.8290 hc        1 326      0.155000
     34 H3         43.2250  -11.2050  -65.6480 ha        1 326      0.146000
     35 H4         44.1110   -9.1810  -66.7300 ha        1 326      0.115000
     36 H171       48.4410  -12.1310  -65.5840 hc        1 326      0.069667
     37 H172       47.2550  -10.9720  -64.8500 hc        1 326      0.069667
     38 H173       47.1730  -12.7330  -64.4270 hc        1 326      0.069667
     39 H17        46.4620   -9.3690  -69.3260 ho        1 326      0.258000
     40 H211       50.7920  -13.3040  -70.6120 hc        1 326      0.081000
     41 H212       51.6950  -12.1800  -69.5160 hc        1 326      0.081000
     42 H213       50.9470  -13.6970  -68.8410 hc        1 326      0.081000
     43 H27        48.0580   -7.2300  -72.7020 ha        1 326      0.108000
     44 H28        48.6420   -6.1110  -74.0740 ha        1 326      0.108000
     45 H30      -268.1970   53.0480  418.8510 h4        1 326      0.223000
     46 C23        51.0490   -7.4380  -74.5220 c2        1 326      0.285000
@<TRIPOS>BOND
     1    1    2 1   
     2    1    6 1   
     3    2    3 1   
     4    2   34 1   
     5    3    4 1   
     6    3   35 1   
     7    4    5 1   
     8    5    6 1   
     9    5   11 1   
    10    6   16 1   
    11    6   33 1   
    12    7    8 1   
    13    7    9 1   
    14    7   10 1   
    15   11   12 1   
    16   11   15 1   
    17   12   13 1   
    18   13   14 1   
    19   13   20 1   
    20   14   15 1   
    21   14   19 1   
    22   15   17 1   
    23   16   36 1   
    24   16   37 1   
    25   16   38 1   
    26   17   39 1   
    27   18   19 1   
    28   18   23 1   
    29   20   40 1   
    30   20   41 1   
    31   20   42 1   
    32   21   46 1   
    33   22   23 1   
    34   22   25 1   
    35   22   46 1   
    36   23   28 1   
    37   24   28 1   
    38   24   46 1   
    39   25   43 1   
    40   25   44 1   
    41   26   27 1   
    42   27   29 1   
    43   27   45 1   
    44   29   30 1   
    45   29   31 1   
    46   29   32 1   
@<TRIPOS>SUBSTRUCTURE
     1 326         1 TEMP              0 ****  ****    0 ROOT
