@<TRIPOS>MOLECULE
326
   46    36     1     0     0
SMALL
bcc


@<TRIPOS>ATOM
      1 C1          2.7040    2.1800   -2.7400 c1        1 326     -0.051000
      2 C2          2.4100    1.2770   -3.7510 c1        1 326     -0.740000
      3 C3          1.4290    0.3180   -3.5590 c1        1 326     -0.042500
      4 C4          0.7410    0.2610   -2.3560 c1        1 326     -0.153000
      5 C5          1.0360    1.1630   -1.3460 c1        1 326      0.096000
      6 C6          2.0170    2.1220   -1.5380 c1        1 326     -0.106000
      7 S7          3.3420    1.2990   -5.2520 s4        1 326      2.089300
      8 O8          3.6360   -0.1030   -5.7350 o         1 326     -0.689900
      9 O9          4.7350    1.8270   -5.0230 o         1 326     -0.689900
     10 O10         2.6180    2.1010   -6.3050 os        1 326     -1.075500
     11 N11         0.3230    1.1500   -0.2060 n2        1 326     -0.107000
     12 N12        -0.7380    1.9700    0.0870 n2        1 326     -0.107000
     13 C13        -1.0920    1.7530    1.3710 c1        1 326      0.009500
     14 C14        -0.2580    0.8020    1.8840 c1        1 326     -0.207000
     15 C15         0.6150    0.4340    0.8990 c1        1 326      0.009500
     16 C17         2.3610    3.0910   -0.4190 c3        1 326     -0.161000
     17 O17         1.6180   -0.4490    0.4690 o         1 326     -0.260000
     18 N19        -0.7250   -0.6450    3.6150 n1        1 326      0.020000
     19 N20        -0.1900    0.4050    3.2500 n1        1 326      0.020000
     20 C21        -2.1590    2.5080    2.1380 c2        1 326     -0.163000
     21 O22        -4.7130   -0.6270    3.7630 o         1 326     -0.581000
     22 C23        -3.5290   -1.0240    3.9530 c2        1 326      0.363000
     23 C24        -2.7660   -1.6940    2.8270 c2        1 326     -0.033000
     24 C25        -1.4070   -1.4580    2.6760 c1        1 326     -0.120000
     25 O26        -3.0090   -0.9280    5.0950 o         1 326     -0.581000
     26 C27        -3.4030   -2.6170    2.0140 c1        1 326     -0.157000
     27 C28        -2.6840   -3.3060    1.0490 c1        1 326     -0.042500
     28 C29        -1.3270   -3.0710    0.8970 c1        1 326     -0.740000
     29 C30        -0.6880   -2.1470    1.7100 c1        1 326     -0.060000
     30 S31        -0.3800   -4.0610   -0.2310 s4        1 326      2.089300
     31 O32         1.1010   -3.9600    0.0590 o         1 326     -0.689900
     32 O33        -0.6230   -5.5350   -0.0030 o         1 326     -0.689900
     33 O34        -0.6870   -3.6690   -1.6550 os        1 326     -1.075500
     34 H1          3.3950    2.8550   -2.8750 ha        1 326      0.135000
     35 H3          1.2060   -0.3040   -4.2800 ha        1 326      0.133000
     36 H4          0.0520   -0.4140   -2.2210 ha        1 326      0.161000
     37 H171        3.0390    3.7230   -0.7320 hc        1 326      0.072667
     38 H172        1.5550    3.5810   -0.1520 hc        1 326      0.072667
     39 H173        2.7110    2.5900    0.3510 hc        1 326      0.072667
     40 H17         2.1200   -0.6880    1.1620 ho        1 326      0.290000
     41 H211       -3.0360    2.1160    1.9480 ha        1 326      0.098000
     42 H212       -1.9740    2.4470    3.1000 ha        1 326      0.098000
     43 H213       -2.1540    3.4480    1.8640 ha        1 326      0.098000
     44 H27        -4.3600   -2.7830    2.1210 ha        1 326      0.124000
     45 H28        -3.1330   -3.9560    0.4770 ha        1 326      0.133000
     46 H30         0.2680   -1.9820    1.6030 ha        1 326      0.138000
@<TRIPOS>BOND
     1    1    6 1   
     2    1   34 1   
     3    2    3 1   
     4    2    7 1   
     5    3   35 1   
     6    4    5 1   
     7    4   36 1   
     8    6   16 1   
     9    7    8 1   
    10    7    9 1   
    11   11   12 1   
    12   11   15 1   
    13   12   13 1   
    14   13   14 1   
    15   14   15 1   
    16   16   37 1   
    17   16   38 1   
    18   16   39 1   
    19   17   40 1   
    20   18   19 1   
    21   20   41 1   
    22   20   42 1   
    23   20   43 1   
    24   21   22 1   
    25   22   23 1   
    26   22   25 1   
    27   23   24 1   
    28   23   26 1   
    29   24   29 1   
    30   26   44 1   
    31   27   28 1   
    32   27   45 1   
    33   28   30 1   
    34   29   46 1   
    35   30   31 1   
    36   30   32 1   
@<TRIPOS>SUBSTRUCTURE
     1 326         1 TEMP              0 ****  ****    0 ROOT
