@<TRIPOS>MOLECULE
327
   28    29     1     0     0
SMALL
bcc


@<TRIPOS>ATOM
      1 C1          1.5330   -0.7530   -1.0390 c3        1 327      0.159500
      2 C2         -0.0120    1.1280   -0.6020 ce        1 327      0.677800
      3 C3         -1.2130   -0.9740    0.2910 cd        1 327      0.120100
      4 C7          0.5870   -1.9540   -0.8820 c3        1 327      0.131400
      5 C8          2.3710   -0.5960    0.2370 c3        1 327     -0.108400
      6 C9          3.4880    0.4110    0.0680 c3        1 327     -0.086400
      7 C10         4.4060    0.4120    1.2640 c3        1 327     -0.090100
      8 N1          0.8550    0.4430   -1.5100 nh        1 327     -0.771200
      9 N2          0.1850    2.3880   -0.3380 n2        1 327     -0.831100
     10 C4         -1.1570    0.3600   -0.0820 cc        1 327     -0.265000
     11 S1         -2.6520    1.0990    0.1730 ss        1 327      0.042200
     12 C5         -3.3620   -0.2720    0.7980 cc        1 327     -0.147100
     13 C6         -2.5010   -1.3450    0.8150 cd        1 327     -0.163000
     14 O1         -0.2060   -1.9030    0.3050 os        1 327     -0.308900
     15 H1          2.2410   -1.0350   -1.8820 h1        1 327      0.064700
     16 H7         -0.0740   -2.0650   -1.7800 h1        1 327      0.067700
     17 H7A         1.1970   -2.8860   -0.7280 h1        1 327      0.067700
     18 H8          1.7040   -0.2930    1.0860 hc        1 327      0.057200
     19 H8A         2.8030   -1.5990    0.4950 hc        1 327      0.057200
     20 H9          4.0760    0.1700   -0.8570 hc        1 327      0.043700
     21 H9A         3.0570    1.4380   -0.0690 hc        1 327      0.043700
     22 H10         5.2130    1.1720    1.1300 hc        1 327      0.034367
     23 H10A        3.8390    0.6580    2.1940 hc        1 327      0.034367
     24 H10B        4.8820   -0.5900    1.3980 hc        1 327      0.034367
     25 HN1         1.5310    1.0750   -1.9100 hn        1 327      0.397800
     26 HN2        -0.5240    2.8190    0.2140 hn        1 327      0.393400
     27 H5         -4.3970   -0.2940    1.1390 h4        1 327      0.177000
     28 H6         -2.7220   -2.3510    1.1740 ha        1 327      0.169000
@<TRIPOS>BOND
     1    1    4 1   
     2    1    5 1   
     3    1    8 1   
     4    1   15 1   
     5    2    8 1   
     6    2    9 2   
     7    2   10 1   
     8    3   10 2   
     9    3   13 1   
    10    3   14 1   
    11    4   14 1   
    12    4   16 1   
    13    4   17 1   
    14    5    6 1   
    15    5   18 1   
    16    5   19 1   
    17    6    7 1   
    18    6   20 1   
    19    6   21 1   
    20    7   22 1   
    21    7   23 1   
    22    7   24 1   
    23    8   25 1   
    24    9   26 1   
    25   10   11 1   
    26   11   12 1   
    27   12   13 2   
    28   12   27 1   
    29   13   28 1   
@<TRIPOS>SUBSTRUCTURE
     1 327         1 TEMP              0 ****  ****    0 ROOT
