@<TRIPOS>MOLECULE
327
   28    29     1     0     0
SMALL
bcc


@<TRIPOS>ATOM
      1 C1         -0.1070   -0.0510   -0.0180 c3        1 327      0.152500
      2 C2         -0.3990   -1.7800    1.7080 ce        1 327      0.657800
      3 C3          2.1080   -1.2380    1.7260 cd        1 327      0.096100
      4 C7          1.4230   -0.0340   -0.2040 c3        1 327      0.093400
      5 C8         -0.5110    1.0840    0.9290 c3        1 327     -0.074400
      6 C9         -2.0000    1.3520    0.9030 c3        1 327     -0.074400
      7 C10        -2.3540    2.5440    1.7550 c3        1 327     -0.094100
      8 N1         -0.6540   -1.3470    0.3470 nh        1 327     -0.818200
      9 N2         -1.3250   -2.0080    2.5800 n2        1 327     -0.761100
     10 C4          1.0050   -2.0050    2.0880 cc        1 327     -0.269000
     11 S1          1.4650   -3.2560    3.1050 ss        1 327      0.130200
     12 C5          3.0720   -2.8470    3.0830 cc        1 327     -0.179100
     13 C6          3.3230   -1.7350    2.3070 cd        1 327     -0.164000
     14 O1          2.1510   -0.0610    1.0230 os        1 327     -0.304900
     15 H1         -0.5490    0.1740   -1.0380 h1        1 327      0.066700
     16 H7          1.7390    0.9480   -0.6530 h1        1 327      0.059700
     17 H7A         1.7560   -0.8770   -0.8640 h1        1 327      0.059700
     18 H8         -0.1780    0.8430    1.9740 hc        1 327      0.056200
     19 H8A         0.0420    2.0070    0.6100 hc        1 327      0.056200
     20 H9         -2.3310    1.5310   -0.1540 hc        1 327      0.042200
     21 H9A        -2.5540    0.4490    1.2730 hc        1 327      0.042200
     22 H10        -2.0460    2.3760    2.8150 hc        1 327      0.033700
     23 H10A       -1.8400    3.4630    1.3830 hc        1 327      0.033700
     24 H10B       -3.4560    2.7230    1.7310 hc        1 327      0.033700
     25 HN1        -0.3160   -2.0510   -0.2870 hn        1 327      0.377800
     26 HN2        -2.2670   -1.8470    2.2860 hn        1 327      0.405400
     27 H5          3.8330   -3.4050    3.6280 h4        1 327      0.175000
     28 H6          4.2920   -1.2610    2.1440 ha        1 327      0.167000
@<TRIPOS>BOND
     1    1    4 1   
     2    1    5 1   
     3    1    8 1   
     4    1   15 1   
     5    2    8 1   
     6    2    9 2   
     7    2   10 1   
     8    3   10 2   
     9    3   13 1   
    10    3   14 1   
    11    4   14 1   
    12    4   16 1   
    13    4   17 1   
    14    5    6 1   
    15    5   18 1   
    16    5   19 1   
    17    6    7 1   
    18    6   20 1   
    19    6   21 1   
    20    7   22 1   
    21    7   23 1   
    22    7   24 1   
    23    8   25 1   
    24    9   26 1   
    25   10   11 1   
    26   11   12 1   
    27   12   13 2   
    28   12   27 1   
    29   13   28 1   
@<TRIPOS>SUBSTRUCTURE
     1 327         1 TEMP              0 ****  ****    0 ROOT
