@<TRIPOS>MOLECULE
327
   28    29     1     0     0
SMALL
bcc


@<TRIPOS>ATOM
      1 C1         -0.1280   -0.0900   -0.0530 c3        1 327      0.176500
      2 C2         -0.3670   -2.0330    1.5290 ce        1 327      0.704800
      3 C3          2.0940   -1.1750    1.6960 cd        1 327      0.110100
      4 C7          1.3830   -0.1650   -0.3220 c3        1 327      0.129400
      5 C8         -0.4200    1.0740    0.9050 c3        1 327     -0.111400
      6 C9         -1.8930    1.4120    0.9610 c3        1 327     -0.079400
      7 C10        -2.1400    2.6360    1.8050 c3        1 327     -0.092100
      8 N1         -0.6970   -1.3660    0.3170 nu        1 327     -0.837200
      9 N2         -1.1910   -2.7760    2.2190 n2        1 327     -0.859100
     10 C4          1.0240   -2.0050    2.0100 cc        1 327     -0.240000
     11 S1          1.4930   -3.1360    3.1740 ss        1 327      0.150200
     12 C5          3.0410   -2.5690    3.2840 cc        1 327     -0.185100
     13 C6          3.2770   -1.5030    2.4420 cd        1 327     -0.174000
     14 O1          2.1570   -0.0830    0.8720 os        1 327     -0.306900
     15 H1         -0.6030    0.1630   -1.0540 h1        1 327      0.060700
     16 H7          1.6510   -1.0900   -0.8940 h1        1 327      0.068200
     17 H7A         1.7040    0.7510   -0.8890 h1        1 327      0.068200
     18 H8          0.1580    1.9670    0.5500 hc        1 327      0.061700
     19 H8A        -0.0410    0.8210    1.9300 hc        1 327      0.061700
     20 H9         -2.2800    1.5880   -0.0780 hc        1 327      0.034700
     21 H9A        -2.4690    0.5480    1.3860 hc        1 327      0.034700
     22 H10        -1.7740    2.4750    2.8480 hc        1 327      0.036367
     23 H10A       -3.2320    2.8650    1.8450 hc        1 327      0.036367
     24 H10B       -1.6090    3.5220    1.3810 hc        1 327      0.036367
     25 HN1        -1.6820   -1.3750    0.1280 hn        1 327      0.391800
     26 HN2        -2.1370   -2.8130    1.9050 hn        1 327      0.386400
     27 H5          3.7880   -3.0010    3.9510 h4        1 327      0.174000
     28 H6          4.2110   -0.9520    2.3330 ha        1 327      0.166000
@<TRIPOS>BOND
     1    1    4 1   
     2    1    5 1   
     3    1    8 1   
     4    1   15 1   
     5    2    8 1   
     6    2    9 2   
     7    2   10 1   
     8    3   10 2   
     9    3   13 1   
    10    3   14 1   
    11    4   14 1   
    12    4   16 1   
    13    4   17 1   
    14    5    6 1   
    15    5   18 1   
    16    5   19 1   
    17    6    7 1   
    18    6   20 1   
    19    6   21 1   
    20    7   22 1   
    21    7   23 1   
    22    7   24 1   
    23    8   25 1   
    24    9   26 1   
    25   10   11 1   
    26   11   12 1   
    27   12   13 2   
    28   12   27 1   
    29   13   28 1   
@<TRIPOS>SUBSTRUCTURE
     1 327         1 TEMP              0 ****  ****    0 ROOT
