@<TRIPOS>MOLECULE
327
   28    29     1     0     0
SMALL
bcc


@<TRIPOS>ATOM
      1 C1         -0.1190   -0.0950   -0.0560 c3        1 327      0.176500
      2 C2         -0.3630   -2.0350    1.5300 ce        1 327      0.704800
      3 C3          2.0930   -1.1670    1.7120 cd        1 327      0.110100
      4 C7          1.3940   -0.1650   -0.3130 c3        1 327      0.129400
      5 C8         -0.4210    1.0710    0.8970 c3        1 327     -0.111400
      6 C9         -1.8960    1.4050    0.9410 c3        1 327     -0.079400
      7 C10        -2.1520    2.6300    1.7820 c3        1 327     -0.092100
      8 N1         -0.6860   -1.3710    0.3140 nh        1 327     -0.837200
      9 N2         -1.1900   -2.7800    2.2150 n2        1 327     -0.859100
     10 C4          1.0240   -1.9990    2.0210 cc        1 327     -0.240000
     11 S1          1.4880   -3.1250    3.1930 ss        1 327      0.150200
     12 C5          3.0330   -2.5520    3.3130 cc        1 327     -0.185100
     13 C6          3.2710   -1.4880    2.4690 cd        1 327     -0.174000
     14 O1          2.1590   -0.0770    0.8850 os        1 327     -0.306900
     15 H1         -0.5880    0.1550   -1.0600 h1        1 327      0.060700
     16 H7          1.7170    0.7500   -0.8810 h1        1 327      0.068200
     17 H7A         1.6690   -1.0910   -0.8810 h1        1 327      0.068200
     18 H8         -0.0490    0.8220    1.9260 hc        1 327      0.061700
     19 H8A         0.1570    1.9650    0.5450 hc        1 327      0.061700
     20 H9         -2.2750    1.5780   -0.1010 hc        1 327      0.034700
     21 H9A        -2.4720    0.5400    1.3640 hc        1 327      0.034700
     22 H10        -1.7930    2.4720    2.8270 hc        1 327      0.036367
     23 H10A       -1.6200    3.5170    1.3590 hc        1 327      0.036367
     24 H10B       -3.2450    2.8560    1.8130 hc        1 327      0.036367
     25 HN1        -1.6700   -1.3840    0.1180 hn        1 327      0.391800
     26 HN2        -2.1320   -2.8210    1.8940 hn        1 327      0.386400
     27 H5          3.7760   -2.9790    3.9870 h4        1 327      0.174000
     28 H6          4.2050   -0.9350    2.3650 ha        1 327      0.166000
@<TRIPOS>BOND
     1    1    4 1   
     2    1    5 1   
     3    1    8 1   
     4    1   15 1   
     5    2    8 1   
     6    2    9 2   
     7    2   10 1   
     8    3   10 2   
     9    3   13 1   
    10    3   14 1   
    11    4   14 1   
    12    4   16 1   
    13    4   17 1   
    14    5    6 1   
    15    5   18 1   
    16    5   19 1   
    17    6    7 1   
    18    6   20 1   
    19    6   21 1   
    20    7   22 1   
    21    7   23 1   
    22    7   24 1   
    23    8   25 1   
    24    9   26 1   
    25   10   11 1   
    26   11   12 1   
    27   12   13 2   
    28   12   27 1   
    29   13   28 1   
@<TRIPOS>SUBSTRUCTURE
     1 327         1 TEMP              0 ****  ****    0 ROOT
