@<TRIPOS>MOLECULE
327
   28    24     1     0     0
SMALL
bcc


@<TRIPOS>ATOM
      1 C1         -0.1550    0.4190   -0.0800 c3        1 327     -0.023000
      2 C2         -0.6730   -0.6770    1.9640 c1        1 327      0.176000
      3 C3          1.7180   -1.0250    1.7320 c1        1 327      0.041000
      4 C7          1.3670    0.5310    0.0120 c3        1 327     -0.055000
      5 C8         -0.6880    1.5210   -0.9940 c3        1 327     -0.154000
      6 C9         -1.2530    0.9100   -2.2460 c3        1 327     -0.156000
      7 C10        -1.8270    2.0300   -3.1500 c3        1 327     -0.213000
      8 N1         -0.7630    0.5520    1.2250 n2        1 327     -0.334000
      9 N2         -1.4660   -1.0080    2.9810 n1        1 327     -0.284000
     10 C4          0.4280   -1.5600    1.4160 c2        1 327     -0.435000
     11 S1          0.5480   -3.1020    1.3840 ss        1 327      0.698000
     12 C5          2.0350   -3.4670    1.7100 c1        1 327     -0.461000
     13 C6          2.7460   -2.2540    1.9190 c1        1 327     -0.160000
     14 O1          1.8080    0.3450    1.3490 o         1 327     -0.197000
     15 H1         -0.3930   -0.4610   -0.4590 h1        1 327      0.116000
     16 H7          1.6420    1.4100   -0.2960 h1        1 327      0.095500
     17 H7A         1.7710   -0.1470   -0.5530 h1        1 327      0.095500
     18 H8          0.0410    2.1310   -1.2290 hc        1 327      0.084500
     19 H8A        -1.3840    2.0120   -0.5340 hc        1 327      0.084500
     20 H9         -0.5570    0.4410   -2.7180 hc        1 327      0.088000
     21 H9A        -1.9680    0.2840   -2.0100 hc        1 327      0.088000
     22 H10        -2.5360    2.5120   -2.6640 hc        1 327      0.073000
     23 H10A       -2.2030    1.6320   -3.9730 hc        1 327      0.073000
     24 H10B       -1.1040    2.6620   -3.3900 hc        1 327      0.073000
     25 HN1        -1.1510    1.3230    1.5420 hn        1 327      0.195000
     26 HN2        -2.0930   -0.4620    3.2390 DU        1 327      0.163667
     27 H5          2.4310   -4.3740    1.6860 DU        1 327      0.163667
     28 H6          3.6800   -2.1790    2.1360 DU        1 327      0.163667
@<TRIPOS>BOND
     1    1    4 1   
     2    1    5 1   
     3    1    8 1   
     4    1   15 1   
     5    2    9 1   
     6    2   10 1   
     7    3   10 1   
     8    3   13 1   
     9    4   14 1   
    10    4   16 1   
    11    4   17 1   
    12    5    6 1   
    13    5   18 1   
    14    5   19 1   
    15    6    7 1   
    16    6   20 1   
    17    6   21 1   
    18    7   22 1   
    19    7   23 1   
    20    7   24 1   
    21    8   25 1   
    22   10   11 1   
    23   11   12 1   
    24   12   13 1   
@<TRIPOS>SUBSTRUCTURE
     1 327         1 TEMP              0 ****  ****    0 ROOT
