@<TRIPOS>MOLECULE
328
   45    40     1     0     0
SMALL
bcc


@<TRIPOS>ATOM
      1 C1          3.1690    0.7700   -2.4070 c1        1 328     -0.066250
      2 C2          4.5470    0.9340   -2.5600 c1        1 328     -0.066250
      3 C3          5.0810    1.1950   -3.8120 cg        1 328      0.002000
      4 C7          6.6450    1.2310   -4.0050 cg        1 328      0.224800
      5 C9         -5.5140   -0.1940    5.1270 c3        1 328      0.112700
      6 C10        -1.1520    0.1800   -1.7390 c3        1 328      0.019300
      7 C12         1.0870    0.4540   -0.7450 c3        1 328      0.019300
      8 C13         0.8780   -0.8210    0.0930 c3        1 328     -0.120900
      9 C14        -0.5740   -1.0970    0.3490 c3        1 328      0.204500
     10 C15        -1.3780   -1.0890   -0.9150 c3        1 328     -0.120900
     11 C16         0.8420    0.7130   -3.3310 c1        1 328      0.568500
     12 C19        -3.2240   -0.0540    4.2610 c1        1 328      0.173600
     13 C20        -2.7350   -1.1500    4.9150 c1        1 328     -0.066250
     14 C21        -1.6800   -1.8920    4.3560 c1        1 328     -0.066250
     15 C24        -2.6820    0.3200    3.0570 c1        1 328     -0.211500
     16 N25         7.8170    1.2590   -4.1500 n1        1 328     -0.352800
     17 C6          2.3330    0.8680   -3.5050 c1        1 328     -0.090000
     18 C5          2.8610    1.1280   -4.7560 c1        1 328     -0.050500
     19 C4          4.2470    1.2930   -4.9110 c1        1 328     -0.041500
     20 N17        -1.0950   -0.0690    1.2450 n3        1 328     -0.690800
     21 N11         0.2720    0.4540   -1.9690 n3        1 328     -0.275400
     22 O8          0.1080    0.7010   -4.3160 o         1 328     -0.579500
     23 O18        -4.3790    0.6680    4.8040 os        1 328     -0.306400
     24 C23        -1.6240   -0.4260    2.5000 c1        1 328      0.518600
     25 N22        -1.1410   -1.5180    3.1570 n1        1 328     -0.540800
     26 H1          2.7990    0.5870   -1.5340 ha        1 328      0.095750
     27 H2          5.1650    0.8620   -1.7460 ha        1 328      0.095750
     28 H9         -6.1060   -0.2720    4.3320 h1        1 328      0.048033
     29 H9A        -5.1940   -1.0670    5.3760 h1        1 328      0.048033
     30 H9B        -6.0080    0.1880    5.8620 h1        1 328      0.048033
     31 H10        -1.5390    0.9210   -1.2770 h1        1 328      0.060200
     32 H10A       -1.5990    0.0770   -2.6090 h1        1 328      0.060200
     33 H12         0.8420    1.2490   -0.1930 h1        1 328      0.060200
     34 H12A        2.0430    0.5200   -0.9960 h1        1 328      0.060200
     35 H13         1.2880   -1.6200   -0.4060 hc        1 328      0.064450
     36 H13A        1.3240   -0.7190    0.9310 hc        1 328      0.064450
     37 H14        -0.6590   -1.9500    0.7680 h1        1 328      0.090700
     38 H15        -1.1160   -1.8960   -1.4760 hc        1 328      0.064450
     39 H15A       -2.3470   -1.1570   -0.6870 hc        1 328      0.064450
     40 H20        -3.1220   -1.4200    5.7770 ha        1 328      0.095750
     41 H21        -1.3170   -2.7050    4.8420 ha        1 328      0.095750
     42 H24        -3.0260    1.1010    2.5890 ha        1 328      0.098500
     43 H5          2.2990    1.1940   -5.4960 ha        1 328      0.093500
     44 H4          4.6270    1.4800   -5.8070 ha        1 328      0.092500
     45 HN17       -1.0640    0.7690    1.0090 hn        1 328      0.400800
@<TRIPOS>BOND
     1    1    2 3   
     2    1   26 1   
     3    2   27 1   
     4    3    4 1   
     5    3   19 3   
     6    4   16 3   
     7    5   23 1   
     8    5   28 1   
     9    5   29 1   
    10    5   30 1   
    11    6   10 1   
    12    6   21 1   
    13    6   31 1   
    14    6   32 1   
    15    7    8 1   
    16    7   21 1   
    17    7   33 1   
    18    7   34 1   
    19    8    9 1   
    20    8   35 1   
    21    8   36 1   
    22    9   10 1   
    23    9   20 1   
    24    9   37 1   
    25   10   38 1   
    26   10   39 1   
    27   11   21 2   
    28   11   22 2   
    29   12   15 3   
    30   12   23 1   
    31   13   14 3   
    32   13   40 1   
    33   14   41 1   
    34   15   42 1   
    35   17   18 3   
    36   18   43 1   
    37   19   44 1   
    38   20   24 1   
    39   20   45 1   
    40   24   25 3   
@<TRIPOS>SUBSTRUCTURE
     1 328         1 TEMP              0 ****  ****    0 ROOT
