@<TRIPOS>MOLECULE
328
   45    47     1     0     0
SMALL
bcc


@<TRIPOS>ATOM
      1 C1          0.0000    0.0000    0.0000 ca        1 328     -0.073000
      2 C2          1.3780    0.0000    0.0000 ca        1 328     -0.070500
      3 C3          2.0760    0.0000    1.2100 ca        1 328      0.049000
      4 C7          3.5080   -0.0000    1.2110 c1        1 328     -0.117000
      5 C9        -10.1110   -0.1300   -3.2650 c3        1 328      0.022000
      6 C10        -4.3140   -0.6890    0.2320 c3        1 328     -0.091000
      7 C12        -2.1360   -1.7150   -0.5370 c3        1 328     -0.133000
      8 C13        -2.7470   -3.1090   -0.3610 DU        1 328     -0.054000
      9 C14        -4.2540   -3.0370   -0.6180 c3        1 328     -0.124000
     10 C15        -4.9010   -2.0940    0.3990 c3        1 328     -0.149000
     11 C19        -8.8770   -1.8860   -2.3610 c2        1 328      0.137000
     12 C20        -9.3340   -2.9330   -3.1940 c2        1 328     -0.323000
     13 C21        -8.3780   -3.9550   -2.9530 c2        1 328     -0.028000
     14 C24        -7.7700   -1.9710   -1.5670 c2        1 328     -0.275000
     15 N25         4.6440   -0.0100    1.2290 n1        1 328     -0.026000
     16 C6         -0.6980    0.0010    1.2090 ca        1 328     -0.124000
     17 C5         -0.0010    0.0010    2.4180 ca        1 328     -0.073000
     18 C4          1.3760    0.0010    2.4190 ca        1 328     -0.070500
     19 N17        -4.8370   -4.3740   -0.4840 n2        1 328     -0.002000
     20 N11        -2.8510   -0.7730    0.3340 n         1 328     -0.085000
     21 O8         -2.7850    0.7000    1.9950 o         1 328     -0.366000
     22 O18        -9.8130   -1.0670   -2.0700 os        1 328     -0.235000
     23 C23        -6.9370   -3.0290   -1.4350 c1        1 328     -0.188000
     24 N22        -7.4900   -4.0340   -2.3210 n2        1 328     -0.013000
     25 H1         -0.4540    0.4200   -0.8890 ha        1 328      0.125000
     26 H2          1.8280    0.1160   -0.9790 ha        1 328      0.123000
     27 H9        -10.7620    0.7000   -3.0180 h1        1 328      0.048333
     28 H9A       -10.8680   -0.7880   -3.6750 h1        1 328      0.048333
     29 H9B        -9.2100   -0.2010   -3.8620 h1        1 328      0.048333
     30 H10        -4.6700   -0.4070    1.2160 h1        1 328      0.115000
     31 H10A       -4.7380   -0.3540   -0.7070 h1        1 328      0.115000
     32 H12        -2.5970   -1.1310   -1.3250 h1        1 328      0.134500
     33 H12A       -1.1060   -1.6590   -0.2070 h1        1 328      0.134500
     34 H13        -2.7040   -3.4410    0.6690 ha        1 328      0.104000
     35 H13A       -2.1980   -3.5230   -1.1980 ha        1 328      0.104000
     36 H14        -3.4060   -3.2490    0.0230 DU        1 328      0.210000
     37 H15        -5.9520   -2.0810    0.1340 hc        1 328      0.117500
     38 H15A       -4.3650   -2.4670    1.2640 hc        1 328      0.117500
     39 H20       -10.2590   -3.1950   -3.6930 ha        1 328      0.150000
     40 H21        -8.4930   -4.6370   -3.7870 h4        1 328      0.024000
     41 H24        -7.4130   -1.1310   -0.9830 ha        1 328      0.091000
     42 H5         -0.5900   -0.2740    3.2850 ha        1 328      0.125000
     43 H4          2.0650    0.0540    3.2540 ha        1 328      0.123000
     44 HN17       -4.3150   -5.1870   -0.2230 hn        1 328      0.070000
     45 C16        -2.1770    0.0010    1.2080 c2        1 328      0.286000
@<TRIPOS>BOND
     1    1    2 1   
     2    1   16 1   
     3    1   25 1   
     4    2    3 1   
     5    2   26 1   
     6    3    4 1   
     7    3   18 1   
     8    4   15 1   
     9    5   22 1   
    10    5   27 1   
    11    5   28 1   
    12    5   29 1   
    13    6   10 1   
    14    6   20 1   
    15    6   30 1   
    16    6   31 1   
    17    7    8 1   
    18    7   20 1   
    19    7   32 1   
    20    7   33 1   
    21    8    9 1   
    22    8   34 1   
    23    8   35 1   
    24    8   36 1   
    25    9   10 1   
    26    9   19 1   
    27    9   36 1   
    28   10   37 1   
    29   10   38 1   
    30   11   12 1   
    31   11   14 1   
    32   11   22 1   
    33   12   13 1   
    34   12   39 1   
    35   13   24 1   
    36   13   40 1   
    37   14   23 1   
    38   14   41 1   
    39   16   17 1   
    40   16   45 1   
    41   17   18 1   
    42   17   42 1   
    43   18   43 1   
    44   19   44 1   
    45   20   45 1   
    46   21   45 1   
    47   23   24 1   
@<TRIPOS>SUBSTRUCTURE
     1 328         1 TEMP              0 ****  ****    0 ROOT
