@<TRIPOS>MOLECULE
328
   45    47     1     0     0
SMALL
bcc


@<TRIPOS>ATOM
      1 C1         -4.1690    0.6740    1.0140 ca        1 328     -0.101000
      2 C2         -5.4210    0.0790    1.1510 ca        1 328     -0.098000
      3 C3         -6.0600   -0.4680    0.0290 ca        1 328     -0.001000
      4 C7         -7.3350   -1.0820    0.1680 cg        1 328      0.227800
      5 C9          7.4680    1.1080    1.4070 c3        1 328      0.112700
      6 C10         0.1320    1.6610    0.1460 c3        1 328      0.080000
      7 C12        -1.0780   -0.2860    0.9540 c3        1 328      0.080000
      8 C13        -0.0870   -1.2300    0.2710 c3        1 328     -0.123900
      9 C14         1.3000   -0.5700    0.1930 c3        1 328      0.196500
     10 C15         1.1630    0.7720   -0.5450 c3        1 328     -0.123900
     11 C19         5.5780    0.0350    0.4440 ca        1 328      0.185100
     12 C20         6.3310   -0.4400   -0.6360 ca        1 328     -0.362300
     13 C21         5.6520   -1.2070   -1.5980 ca        1 328      0.461200
     14 C24         4.2080   -0.2610    0.5360 ca        1 328     -0.319300
     15 N25        -8.3780   -1.5840    0.2820 n1        1 328     -0.351800
     16 C6         -3.5540    0.7270   -0.2410 ca        1 328     -0.111600
     17 C5         -4.1970    0.1950   -1.3630 ca        1 328     -0.101000
     18 C4         -5.4460   -0.4080   -1.2300 ca        1 328     -0.098000
     19 N17         2.2760   -1.4840   -0.3760 nh        1 328     -0.820900
     20 N11        -1.1560    1.0290    0.3570 n         1 328     -0.452800
     21 O8         -2.1490    2.3800   -1.2160 o         1 328     -0.583100
     22 O18         6.0770    0.8060    1.4700 os        1 328     -0.323900
     23 C23         3.6170   -1.0550   -0.4830 ca        1 328      0.650200
     24 N22         4.3510   -1.5100   -1.5600 nb        1 328     -0.742000
     25 H1         -3.6680    1.1090    1.8930 ha        1 328      0.154000
     26 H2         -5.9090    0.0410    2.1370 ha        1 328      0.151500
     27 H9          7.6420    1.7220    2.3270 h1        1 328      0.047700
     28 H9A         8.0750    0.1720    1.4350 h1        1 328      0.047700
     29 H9B         7.7000    1.6990    0.4870 h1        1 328      0.047700
     30 H10         0.5250    1.9510    1.1640 h1        1 328      0.064700
     31 H10A       -0.0070    2.6020   -0.4600 h1        1 328      0.064700
     32 H12        -2.0920   -0.7740    0.9600 h1        1 328      0.064700
     33 H12A       -0.7560   -0.1440    2.0280 h1        1 328      0.064700
     34 H13        -0.0320   -2.1760    0.8700 hc        1 328      0.061450
     35 H13A       -0.4490   -1.4930   -0.7560 hc        1 328      0.061450
     36 H14         1.6310   -0.3500    1.2540 h1        1 328      0.065700
     37 H15         0.8670    0.5960   -1.6110 hc        1 328      0.061450
     38 H15A        2.1480    1.3070   -0.5450 hc        1 328      0.061450
     39 H20         7.4010   -0.2330   -0.7440 ha        1 328      0.148000
     40 H21         6.1970   -1.6030   -2.4760 h4        1 328      0.021100
     41 H24         3.6350    0.1130    1.3940 ha        1 328      0.158000
     42 H5         -3.7190    0.2680   -2.3530 ha        1 328      0.154000
     43 H4         -5.9520   -0.8290   -2.1120 ha        1 328      0.151500
     44 HN17        1.9350   -1.9460   -1.1980 hn        1 328      0.408800
     45 C16        -2.2430    1.4200   -0.4260 c         1 328      0.660700
@<TRIPOS>BOND
     1    1    2 ar  
     2    1   16 ar  
     3    1   25 1   
     4    2    3 ar  
     5    2   26 1   
     6    3    4 1   
     7    3   18 ar  
     8    4   15 3   
     9    5   22 1   
    10    5   27 1   
    11    5   28 1   
    12    5   29 1   
    13    6   10 1   
    14    6   20 1   
    15    6   30 1   
    16    6   31 1   
    17    7    8 1   
    18    7   20 1   
    19    7   32 1   
    20    7   33 1   
    21    8    9 1   
    22    8   34 1   
    23    8   35 1   
    24    9   10 1   
    25    9   19 1   
    26    9   36 1   
    27   10   37 1   
    28   10   38 1   
    29   11   12 ar  
    30   11   14 ar  
    31   11   22 1   
    32   12   13 ar  
    33   12   39 1   
    34   13   24 ar  
    35   13   40 1   
    36   14   23 ar  
    37   14   41 1   
    38   16   17 ar  
    39   16   45 1   
    40   17   18 ar  
    41   17   42 1   
    42   18   43 1   
    43   19   23 1   
    44   19   44 1   
    45   20   45 1   
    46   21   45 2   
    47   23   24 ar  
@<TRIPOS>SUBSTRUCTURE
     1 328         1 TEMP              0 ****  ****    0 ROOT
