@<TRIPOS>MOLECULE
329
   23    24     1     0     0
SMALL
bcc


@<TRIPOS>ATOM
      1 C1         -0.1600    0.0310   -0.0820 cc        1 329     -0.155000
      2 C2          1.2660   -0.0950   -0.0490 cc        1 329      0.180100
      3 O1          1.9570   -0.1140    1.1240 os        1 329     -0.310900
      4 C3          2.8660   -1.2050    1.3810 c3        1 329      0.141100
      5 C4          2.1320   -2.3020    2.1260 c3        1 329     -0.129100
      6 N1          4.0770   -0.8770   -0.8290 n2        1 329     -0.544900
      7 C5          3.2630   -0.1270   -1.4990 cf        1 329      0.604800
      8 N2          3.8570    0.7740   -2.5360 nz        1 329     -0.806600
      9 C6          1.8320    0.0080   -1.3310 cd        1 329     -0.386000
     10 S1          0.6350    0.2080   -2.4880 ss        1 329      0.079200
     11 C7         -0.6030    0.2090   -1.3750 cd        1 329     -0.086100
     12 C8          3.5700   -1.7980    0.1500 c3        1 329      0.079800
     13 H1         -0.7820   -0.0030    0.8180 ha        1 329      0.199000
     14 H3          3.6230   -0.7060    2.0570 h1        1 329      0.105700
     15 H4          1.3500   -2.7710    1.4820 hc        1 329      0.066700
     16 H4A         2.8560   -3.0870    2.4510 hc        1 329      0.066700
     17 H4B         1.6340   -1.8730    3.0300 hc        1 329      0.066700
     18 HN2         3.4370    0.5560   -3.4440 hn        1 329      0.471467
     19 HN2A        3.6360    1.7430   -2.2780 hn        1 329      0.471467
     20 H7         -1.6510    0.3270   -1.6660 h4        1 329      0.207000
     21 H8          4.4740   -2.3680    0.5200 h1        1 329      0.102200
     22 H8A         2.8690   -2.5330   -0.3470 h1        1 329      0.102200
     23 H23         4.8780    0.6610   -2.5960 hn        1 329      0.471467
@<TRIPOS>BOND
     1    1    2 1   
     2    1   11 2   
     3    1   13 1   
     4    2    3 1   
     5    2    9 2   
     6    3    4 1   
     7    4    5 1   
     8    4   12 1   
     9    4   14 1   
    10    5   15 1   
    11    5   16 1   
    12    5   17 1   
    13    6    7 2   
    14    6   12 1   
    15    7    8 1   
    16    7    9 1   
    17    8   18 1   
    18    8   19 1   
    19    8   23 1   
    20    9   10 1   
    21   10   11 1   
    22   11   20 1   
    23   12   21 1   
    24   12   22 1   
@<TRIPOS>SUBSTRUCTURE
     1 329         1 TEMP              0 ****  ****    0 ROOT
