@<TRIPOS>MOLECULE
329
   22    23     1     0     0
SMALL
bcc


@<TRIPOS>ATOM
      1 C1          1.0970    2.1340    0.4070 cc        1 329     -0.177000
      2 C2          0.1700    1.0590    0.1420 cc        1 329      0.139100
      3 O1         -1.1180    1.4310   -0.1040 os        1 329     -0.305900
      4 C3         -2.1180    0.3970   -0.0820 c3        1 329      0.118100
      5 C4         -3.4140    1.1040   -0.4300 c3        1 329     -0.095100
      6 N1         -0.9490   -1.7530   -0.6530 n2        1 329     -0.675900
      7 C5          0.2100   -1.5080   -0.1000 cf        1 329      0.682800
      8 N2          1.0710   -2.5900    0.2360 nh        1 329     -0.885800
      9 C6          0.7910   -0.1850    0.1600 cd        1 329     -0.294000
     10 S1          2.4440   -0.0060    0.4740 ss        1 329      0.062200
     11 C7          2.3670    1.6480    0.6040 cd        1 329     -0.148100
     12 C8         -1.7980   -0.7020   -1.1100 c3        1 329      0.099800
     13 H1          0.7850    3.1790    0.4330 ha        1 329      0.169000
     14 H3         -2.1660   -0.0220    0.9610 h1        1 329      0.060700
     15 H4         -3.3960    1.4560   -1.4890 hc        1 329      0.051367
     16 H4A        -4.2650    0.3960   -0.2910 hc        1 329      0.051367
     17 H4B        -3.5590    1.9890    0.2350 hc        1 329      0.051367
     18 HN2         0.6740   -3.4940    0.0790 hn        1 329      0.391300
     19 HN2A        1.4420   -2.4990    1.1590 hn        1 329      0.391300
     20 H7          3.2410    2.2640    0.8180 h4        1 329      0.175000
     21 H8         -2.7660   -1.2020   -1.4020 h1        1 329      0.068200
     22 H8A        -1.3730   -0.2050   -2.0300 h1        1 329      0.068200
@<TRIPOS>BOND
     1    1    2 1   
     2    1   11 2   
     3    1   13 1   
     4    2    3 1   
     5    2    9 2   
     6    3    4 1   
     7    4    5 1   
     8    4   12 1   
     9    4   14 1   
    10    5   15 1   
    11    5   16 1   
    12    5   17 1   
    13    6    7 2   
    14    6   12 1   
    15    7    8 1   
    16    7    9 1   
    17    8   18 1   
    18    8   19 1   
    19    9   10 1   
    20   10   11 1   
    21   11   20 1   
    22   12   21 1   
    23   12   22 1   
@<TRIPOS>SUBSTRUCTURE
     1 329         1 TEMP              0 ****  ****    0 ROOT
