@<TRIPOS>MOLECULE
329
   23    24     1     0     0
SMALL
bcc


@<TRIPOS>ATOM
      1 C1         -0.1550    0.0310   -0.0750 cc        1 329     -0.156000
      2 C2          1.2700   -0.1000   -0.0430 cc        1 329      0.180100
      3 O1          1.9610   -0.1310    1.1290 os        1 329     -0.310900
      4 C3          2.8660   -1.2280    1.3770 c3        1 329      0.141100
      5 C4          2.1290   -2.3290    2.1120 c3        1 329     -0.129100
      6 N1          4.0770   -0.8850   -0.8310 n2        1 329     -0.544900
      7 C5          3.2660   -0.1260   -1.4940 cf        1 329      0.604800
      8 N2          3.8630    0.7820   -2.5230 n4        1 329     -0.806600
      9 C6          1.8360    0.0120   -1.3250 cd        1 329     -0.386000
     10 S1          0.6390    0.2270   -2.4800 ss        1 329      0.079200
     11 C7         -0.5980    0.2220   -1.3660 cd        1 329     -0.086100
     12 C8          3.5680   -1.8120    0.1400 c3        1 329      0.079800
     13 H1         -0.7780   -0.0080    0.8250 ha        1 329      0.199000
     14 H3          3.6250   -0.7370    2.0560 h1        1 329      0.105700
     15 H4          1.6330   -1.9050    3.0200 hc        1 329      0.066700
     16 H4A         2.8510   -3.1190    2.4300 hc        1 329      0.066700
     17 H4B         1.3450   -2.7890    1.4640 hc        1 329      0.066700
     18 HN2         3.6460    1.7500   -2.2570 hn        1 329      0.471467
     19 HN2A        4.8830    0.6650   -2.5850 hn        1 329      0.471467
     20 H7         -1.6460    0.3470   -1.6560 h4        1 329      0.207000
     21 H8          2.8640   -2.5410   -0.3640 h1        1 329      0.102200
     22 H8A         4.4690   -2.3890    0.5040 h1        1 329      0.102200
     23 H23         3.4420    0.5730   -3.4330 hn        1 329      0.471467
@<TRIPOS>BOND
     1    1    2 1   
     2    1   11 2   
     3    1   13 1   
     4    2    3 1   
     5    2    9 2   
     6    3    4 1   
     7    4    5 1   
     8    4   12 1   
     9    4   14 1   
    10    5   15 1   
    11    5   16 1   
    12    5   17 1   
    13    6    7 2   
    14    6   12 1   
    15    7    8 1   
    16    7    9 1   
    17    8   18 1   
    18    8   19 1   
    19    8   23 1   
    20    9   10 1   
    21   10   11 1   
    22   11   20 1   
    23   12   21 1   
    24   12   22 1   
@<TRIPOS>SUBSTRUCTURE
     1 329         1 TEMP              0 ****  ****    0 ROOT
