@<TRIPOS>MOLECULE
329
   22    18     1     0     0
SMALL
bcc


@<TRIPOS>ATOM
      1 C1         -2.2900    0.7010    0.1470 c1        1 329     -0.177000
      2 C2         -0.6910    0.7010    0.1470 c1        1 329      0.094000
      3 O1          0.3940    0.7010    1.0540 o         1 329     -0.189000
      4 C3          0.8370   -0.6120    1.3110 c3        1 329      0.007000
      5 C4         -0.1760   -1.3160    2.1950 c3        1 329     -0.213000
      6 N1          1.7810   -0.5730   -0.8360 n1        1 329     -0.263000
      7 C5          1.2490    0.6410   -1.3400 c1        1 329      0.159000
      8 N2          2.1070    1.5930   -1.9480 n2        1 329     -0.324000
      9 C6         -0.2340    0.9310   -1.2090 c2        1 329     -0.480000
     10 S1         -1.4910    1.0860   -2.1170 ss        1 329      0.602000
     11 C7         -2.7460    0.9320   -1.2120 c1        1 329     -0.418000
     12 C8          0.9980   -1.3900    0.0200 c2        1 329     -0.104000
     13 H1         -2.8610    0.5680    0.9270 DU        1 329      0.172000
     14 H3          1.6960   -0.5760    1.7730 h1        1 329      0.100000
     15 H4         -0.8940   -1.6790    1.6420 hc        1 329      0.090667
     16 H4A        -0.5480   -0.6800    2.8340 hc        1 329      0.090667
     17 H4B         0.2630   -2.0430    2.6770 hc        1 329      0.090667
     18 HN2         2.9950    1.4090   -2.0460 hn        1 329      0.186500
     19 HN2A        1.7700    2.3850   -2.2480 hn        1 329      0.186500
     20 H7         -3.6740    1.0270   -1.4970 DU        1 329      0.172000
     21 H8          1.4200   -2.2700    0.0450 ha        1 329      0.107500
     22 H8A         0.0940   -1.5360   -0.3190 ha        1 329      0.107500
@<TRIPOS>BOND
     1    1    2 1   
     2    1   11 1   
     3    2    9 1   
     4    3    4 1   
     5    4    5 1   
     6    4   12 1   
     7    4   14 1   
     8    5   15 1   
     9    5   16 1   
    10    5   17 1   
    11    6    7 1   
    12    7    9 1   
    13    8   18 1   
    14    8   19 1   
    15    9   10 1   
    16   10   11 1   
    17   12   21 1   
    18   12   22 1   
@<TRIPOS>SUBSTRUCTURE
     1 329         1 TEMP              0 ****  ****    0 ROOT
