@<TRIPOS>MOLECULE
329
   23    24     1     0     0
SMALL
bcc


@<TRIPOS>ATOM
      1 C1         -0.1540    0.0470   -0.0700 cc        1 329     -0.155000
      2 C2          1.2710   -0.0890   -0.0440 cc        1 329      0.180100
      3 O1          1.9670   -0.1130    1.1250 os        1 329     -0.310900
      4 C3          2.8690   -1.2120    1.3780 c3        1 329      0.141100
      5 C4          2.1300   -2.3040    2.1230 c3        1 329     -0.129100
      6 N1          4.0730   -0.8900   -0.8370 n2        1 329     -0.544900
      7 C5          3.2620   -0.1330   -1.5020 cf        1 329      0.604800
      8 N2          3.8580    0.7660   -2.5410 n4        1 329     -0.806600
      9 C6          1.8320    0.0110   -1.3290 cd        1 329     -0.386000
     10 S1          0.6320    0.2200   -2.4810 ss        1 329      0.079200
     11 C7         -0.6010    0.2290   -1.3620 cd        1 329     -0.086100
     12 C8          3.5640   -1.8070    0.1430 c3        1 329      0.079800
     13 H1         -0.7720    0.0160    0.8320 ha        1 329      0.199000
     14 H3          3.6320   -0.7190    2.0520 h1        1 329      0.105700
     15 H4          1.6380   -1.8730    3.0300 hc        1 329      0.066700
     16 H4A         2.8500   -3.0950    2.4450 hc        1 329      0.066700
     17 H4B         1.3420   -2.7670    1.4820 hc        1 329      0.066700
     18 HN2         3.6440    1.7360   -2.2820 hn        1 329      0.471467
     19 HN2A        4.8770    0.6450   -2.6050 hn        1 329      0.471467
     20 H7         -1.6500    0.3550   -1.6480 h4        1 329      0.207000
     21 H8          4.4660   -2.3840    0.5080 h1        1 329      0.102200
     22 H8A         2.8560   -2.5380   -0.3520 h1        1 329      0.102200
     23 H23         3.4320    0.5510   -3.4470 hn        1 329      0.471467
@<TRIPOS>BOND
     1    1    2 1   
     2    1   11 2   
     3    1   13 1   
     4    2    3 1   
     5    2    9 2   
     6    3    4 1   
     7    4    5 1   
     8    4   12 1   
     9    4   14 1   
    10    5   15 1   
    11    5   16 1   
    12    5   17 1   
    13    6    7 2   
    14    6   12 1   
    15    7    8 1   
    16    7    9 1   
    17    8   18 1   
    18    8   19 1   
    19    8   23 1   
    20    9   10 1   
    21   10   11 1   
    22   11   20 1   
    23   12   21 1   
    24   12   22 1   
@<TRIPOS>SUBSTRUCTURE
     1 329         1 TEMP              0 ****  ****    0 ROOT
