@<TRIPOS>MOLECULE
32A
   36    36     1     0     0
SMALL
bcc


@<TRIPOS>ATOM
      1 C1         -0.3990    1.7980   -0.1110 cc        1 32A      0.173200
      2 C2         -1.6980    1.2560   -0.5250 c         1 32A      0.565600
      3 C3         -3.8490   -1.4270   -0.6030 c         1 32A      0.522400
      4 C4          1.8040    1.7560    0.2950 cc        1 32A      0.421700
      5 C5         -0.0500    3.0680    0.3180 cd        1 32A     -0.159300
      6 C6          3.0520    1.1470    0.3560 cg        1 32A     -0.251000
      7 C7          4.1360    0.6390    0.4130 c1        1 32A     -0.041100
      8 N1         -1.7800   -0.1420   -0.7160 n         1 32A     -0.451500
      9 N2         -2.8250   -0.7380   -1.3590 n         1 32A     -0.329500
     10 N3         -3.5880   -1.8600    0.6700 n         1 32A     -0.491900
     11 C9          5.4390    0.0510    0.4920 c3        1 32A     -0.014300
     12 C8          1.3660    3.0430    0.5810 cd        1 32A     -0.252300
     13 O2         -2.6940    1.9920   -0.6380 o         1 32A     -0.561100
     14 C10        -4.4980   -2.7120    1.3760 c3        1 32A      0.065300
     15 S1         -5.2230   -1.7320   -1.3980 s         1 32A     -0.537400
     16 O1          0.7270    0.9630   -0.1360 os        1 32A     -0.353800
     17 C11         5.5100   -1.2880   -0.2230 c3        1 32A     -0.076400
     18 C12         6.9010   -1.8770   -0.1180 c3        1 32A     -0.081400
     19 C13         6.9870   -3.2070   -0.8230 c3        1 32A     -0.094100
     20 H5         -0.7160    3.9220    0.4330 ha        1 32A      0.183000
     21 HN1        -0.9120   -0.6000   -0.9440 hn        1 32A      0.333500
     22 HN2        -3.2890   -0.1130   -2.0180 hn        1 32A      0.318500
     23 HN3        -2.7220   -1.6600    1.1150 hn        1 32A      0.324500
     24 H9          6.1920    0.7590    0.0410 hc        1 32A      0.069200
     25 H9A         5.7180   -0.0850    1.5750 hc        1 32A      0.069200
     26 H8          1.9670    3.8760    0.9340 ha        1 32A      0.176000
     27 H10        -4.4490   -2.4640    2.4690 h1        1 32A      0.060367
     28 H10A       -5.5490   -2.5600    0.9990 h1        1 32A      0.060367
     29 H10B       -4.2180   -3.7910    1.2290 h1        1 32A      0.060367
     30 H11         4.7650   -1.9960    0.2260 hc        1 32A      0.051200
     31 H11A        5.2360   -1.1550   -1.3020 hc        1 32A      0.051200
     32 H12         7.6440   -1.1650   -0.5650 hc        1 32A      0.040700
     33 H12A        7.1730   -2.0050    0.9630 hc        1 32A      0.040700
     34 H13         6.2710   -3.9380   -0.3760 hc        1 32A      0.036367
     35 H13A        6.7430   -3.0950   -1.9070 hc        1 32A      0.036367
     36 H13B        8.0190   -3.6250   -0.7340 hc        1 32A      0.036367
@<TRIPOS>BOND
     1    1    2 1   
     2    1    5 2   
     3    1   16 1   
     4    2    8 1   
     5    2   13 2   
     6    3    9 1   
     7    3   10 1   
     8    3   15 2   
     9    4    6 1   
    10    4   12 2   
    11    4   16 1   
    12    5   12 1   
    13    5   20 1   
    14    6    7 3   
    15    7   11 1   
    16    8    9 1   
    17    8   21 1   
    18    9   22 1   
    19   10   14 1   
    20   10   23 1   
    21   11   17 1   
    22   11   24 1   
    23   11   25 1   
    24   12   26 1   
    25   14   27 1   
    26   14   28 1   
    27   14   29 1   
    28   17   18 1   
    29   17   30 1   
    30   17   31 1   
    31   18   19 1   
    32   18   32 1   
    33   18   33 1   
    34   19   34 1   
    35   19   35 1   
    36   19   36 1   
@<TRIPOS>SUBSTRUCTURE
     1 32A         1 TEMP              0 ****  ****    0 ROOT
