@<TRIPOS>MOLECULE
32A
   36    30     1     0     0
SMALL
bcc


@<TRIPOS>ATOM
      1 C1         -0.7380    1.2210   -1.9190 c1        1 32A      0.006000
      2 C2         -1.5630    0.9680   -3.1870 c1        1 32A      0.324000
      3 C3         -0.0000   -0.7790   -5.6630 c1        1 32A      0.065000
      4 C4         -0.1440    1.4400    0.1940 c1        1 32A      0.006000
      5 C5          0.5950    1.5900   -1.8770 c1        1 32A     -0.154000
      6 C6         -0.1980    1.4380    1.7440 c1        1 32A     -0.105000
      7 C7         -0.2440    1.4360    2.9800 c1        1 32A     -0.105000
      8 N1         -0.9700    1.1090   -4.4460 n3        1 32A     -0.218000
      9 N2         -1.0910    0.0740   -5.4050 n2        1 32A     -0.163000
     10 N3         -0.2230   -2.0670   -6.2670 n3        1 32A     -0.301000
     11 C9         -0.3040    1.4310    4.5110 c2        1 32A     -0.063000
     12 C8          0.9510    1.7230   -0.5720 c1        1 32A     -0.154000
     13 O2         -2.7170    0.7290   -3.1030 o         1 32A     -0.312000
     14 C10         0.6880   -3.1500   -6.0110 c3        1 32A     -0.094000
     15 S1          1.5610   -0.2700   -5.3220 s         1 32A     -0.276000
     16 O1         -1.1850    1.1300   -0.6510 os        1 32A     -0.048000
     17 C11         0.1840    0.0970    5.0290 c3        1 32A     -0.156000
     18 C12         0.3020    0.1570    6.5560 c3        1 32A     -0.160000
     19 C13         0.6090   -1.2010    7.0870 c3        1 32A     -0.211000
     20 H5          1.1870    1.7330   -2.6610 DU        1 32A      0.172500
     21 HN1        -0.5270    1.8780   -4.6590 hn        1 32A      0.244000
     22 HN2        -1.9150   -0.0810   -5.8260 hn        1 32A      0.212000
     23 HN3        -0.9100   -2.1790   -6.8720 hn        1 32A      0.228000
     24 H9          0.2710    2.1570    4.8680 ha        1 32A      0.106000
     25 H9A        -1.2390    1.5770    4.8030 ha        1 32A      0.106000
     26 H8          1.8270    1.9740   -0.2430 DU        1 32A      0.172500
     27 H10         1.6050   -2.8040   -5.9790 h1        1 32A      0.102667
     28 H10A        0.4650   -3.5730   -5.1460 h1        1 32A      0.102667
     29 H10B        0.6150   -3.8140   -6.7280 h1        1 32A      0.102667
     30 H11        -0.4550   -0.6060    4.7770 hc        1 32A      0.092500
     31 H11A        1.0460   -0.1000    4.6460 hc        1 32A      0.092500
     32 H12         1.0220    0.7770    6.8060 hc        1 32A      0.079000
     33 H12A       -0.5380    0.4670    6.9330 hc        1 32A      0.079000
     34 H13        -0.0840   -1.8120    6.8230 hc        1 32A      0.075000
     35 H13A        1.4600   -1.5030    6.7290 hc        1 32A      0.075000
     36 H13B        0.6570   -1.1670    8.0530 hc        1 32A      0.075000
@<TRIPOS>BOND
     1    1    5 1   
     2    1   16 1   
     3    2    8 1   
     4    2   13 1   
     5    3   10 1   
     6    3   15 1   
     7    4   12 1   
     8    4   16 1   
     9    5   12 1   
    10    6    7 1   
    11    8    9 1   
    12    8   21 1   
    13    9   22 1   
    14   10   14 1   
    15   10   23 1   
    16   11   17 1   
    17   11   24 1   
    18   11   25 1   
    19   14   27 1   
    20   14   28 1   
    21   14   29 1   
    22   17   18 1   
    23   17   30 1   
    24   17   31 1   
    25   18   19 1   
    26   18   32 1   
    27   18   33 1   
    28   19   34 1   
    29   19   35 1   
    30   19   36 1   
@<TRIPOS>SUBSTRUCTURE
     1 32A         1 TEMP              0 ****  ****    0 ROOT
