@<TRIPOS>MOLECULE
32B
   66    69     1     0     0
SMALL
bcc


@<TRIPOS>ATOM
      1 C1          0.2250   -0.0150   -0.9350 c3        1 32B     -0.094100
      2 C2          1.6690   -0.3100   -0.6260 c3        1 32B     -0.103400
      3 C3          1.9410   -0.4310    0.8860 c3        1 32B      0.259800
      4 C4          3.4330   -0.3120    1.1130 ca        1 32B     -0.114300
      5 C5          4.2750   -1.4020    1.3510 ca        1 32B     -0.116000
      6 C6          5.6390   -1.2210    1.5500 ca        1 32B     -0.127000
      7 C7          6.2280    0.0480    1.5080 ca        1 32B     -0.087600
      8 C8          5.3970    1.1470    1.2610 ca        1 32B      0.069100
      9 C9          4.0090    0.9720    1.0790 ca        1 32B      0.068100
     10 O10         3.1870    2.0560    0.7770 os        1 32B     -0.352900
     11 C11         2.9890    2.9430    1.8780 c3        1 32B      0.115700
     12 O12         5.8830    2.4580    1.3380 os        1 32B     -0.252200
     13 C13         6.2550    3.0320    0.1250 ca        1 32B      0.133100
     14 C14         7.1040    2.3950   -0.7890 ca        1 32B     -0.142000
     15 C15         7.5000    3.0850   -1.9320 ca        1 32B     -0.112000
     16 C16         7.0690    4.3910   -2.1680 ca        1 32B     -0.159000
     17 C17         6.2300    5.0110   -1.2400 ca        1 32B      0.023400
     18 C18         5.8070    4.3450   -0.0890 ca        1 32B     -0.147000
     19 CL          5.7030    6.6130   -1.5200 cl        1 32B     -0.139400
     20 C20         7.7360    0.1370    1.7450 c         1 32B      0.920200
     21 O21         8.1360    0.1930    2.9360 o         1 32B     -0.812300
     22 O22         8.4810    0.0950    0.7260 o         1 32B     -0.812300
     23 N23         1.3630   -1.5950    1.5580 n3        1 32B     -0.754600
     24 C24         1.2520   -2.8040    0.7630 c3        1 32B      0.178800
     25 C25         0.8920   -4.0220    1.6160 c3        1 32B     -0.079400
     26 C26        -0.3600   -3.7740    2.4290 c3        1 32B     -0.095400
     27 C27        -0.1750   -2.4990    3.2630 c3        1 32B      0.111700
     28 C28         0.1540   -1.3110    2.3090 c3        1 32B      0.170800
     29 N29        -1.3080   -2.2040    4.1380 n         1 32B     -0.364000
     30 C30        -1.1040   -2.0450    5.4990 cc        1 32B      0.052600
     31 C31        -2.1100   -1.7590    6.3740 cd        1 32B     -0.273400
     32 C32        -3.4860   -1.5970    5.8780 c         1 32B      0.718700
     33 O33        -4.4820   -1.3560    6.5830 o         1 32B     -0.626500
     34 N34        -3.6610   -1.7350    4.4910 n         1 32B     -0.588500
     35 C35        -2.6090   -2.0200    3.6030 c         1 32B      0.805500
     36 O36        -2.8520   -2.1100    2.3800 o         1 32B     -0.643500
     37 C37        -1.8850   -1.5860    7.8220 c3        1 32B     -0.026900
     38 H1          0.0920    0.1320   -2.0340 hc        1 32B      0.029367
     39 H2         -0.4440   -0.8490   -0.6110 hc        1 32B      0.029367
     40 H3         -0.1060    0.9180   -0.4150 hc        1 32B      0.029367
     41 H4          2.3050    0.5370   -1.0030 hc        1 32B      0.058200
     42 H5          1.9980   -1.2370   -1.1610 hc        1 32B      0.058200
     43 H6          1.4840    0.4970    1.3600 h1        1 32B      0.058700
     44 H7          3.8640   -2.4210    1.4010 ha        1 32B      0.122000
     45 H8          6.2860   -2.0890    1.7500 ha        1 32B      0.141000
     46 H9          3.9670    3.3310    2.2530 h1        1 32B      0.037367
     47 H10         2.4370    2.4210    2.6970 h1        1 32B      0.037367
     48 H11         2.3700    3.7690    1.4470 h1        1 32B      0.037367
     49 H12         7.4790    1.3720   -0.5700 ha        1 32B      0.221000
     50 H13         8.1740    2.5950   -2.6510 ha        1 32B      0.133000
     51 H14         7.3910    4.9260   -3.0720 ha        1 32B      0.130000
     52 H15         5.1440    4.8230    0.6450 ha        1 32B      0.147000
     53 H18         2.2430   -2.9870    0.2620 h1        1 32B      0.039200
     54 H19         0.4710   -2.7040   -0.0490 h1        1 32B      0.039200
     55 H20         1.7470   -4.2730    2.2970 hc        1 32B      0.047200
     56 H21         0.7290   -4.8960    0.9350 hc        1 32B      0.047200
     57 H22        -1.2420   -3.6540    1.7440 hc        1 32B      0.057700
     58 H23        -0.5590   -4.6500    3.0980 hc        1 32B      0.057700
     59 H24         0.7210   -2.6580    3.9400 h1        1 32B      0.076700
     60 H25        -0.7400   -1.1310    1.6420 h1        1 32B      0.048700
     61 H26         0.3270   -0.3870    2.9280 h1        1 32B      0.048700
     62 H27        -0.0590   -2.1680    5.8470 h4        1 32B      0.170000
     63 H28        -4.5670   -1.6170    4.0930 hn        1 32B      0.347500
     64 H29        -1.9640   -0.5040    8.0960 hc        1 32B      0.048367
     65 H30        -0.8750   -1.9580    8.1220 hc        1 32B      0.048367
     66 H31        -2.6650   -2.1440    8.4000 hc        1 32B      0.048367
@<TRIPOS>BOND
     1    1    2 1   
     2    1   38 1   
     3    1   39 1   
     4    1   40 1   
     5    2    3 1   
     6    2   41 1   
     7    2   42 1   
     8    3    4 1   
     9    3   23 1   
    10    3   43 1   
    11    4    5 ar  
    12    4    9 ar  
    13    5    6 ar  
    14    5   44 1   
    15    6    7 ar  
    16    6   45 1   
    17    7    8 ar  
    18    7   20 1   
    19    8    9 ar  
    20    8   12 1   
    21    9   10 1   
    22   10   11 1   
    23   11   46 1   
    24   11   47 1   
    25   11   48 1   
    26   12   13 1   
    27   13   14 ar  
    28   13   18 ar  
    29   14   15 ar  
    30   14   49 1   
    31   15   16 ar  
    32   15   50 1   
    33   16   17 ar  
    34   16   51 1   
    35   17   18 ar  
    36   17   19 1   
    37   18   52 1   
    38   20   21 1   
    39   20   22 1   
    40   23   24 1   
    41   23   28 1   
    42   24   25 1   
    43   24   53 1   
    44   24   54 1   
    45   25   26 1   
    46   25   55 1   
    47   25   56 1   
    48   26   27 1   
    49   26   57 1   
    50   26   58 1   
    51   27   28 1   
    52   27   29 1   
    53   27   59 1   
    54   28   60 1   
    55   28   61 1   
    56   29   30 1   
    57   29   35 1   
    58   30   31 2   
    59   30   62 1   
    60   31   32 1   
    61   31   37 1   
    62   32   33 2   
    63   32   34 1   
    64   34   35 1   
    65   34   63 1   
    66   35   36 2   
    67   37   64 1   
    68   37   65 1   
    69   37   66 1   
@<TRIPOS>SUBSTRUCTURE
     1 32B         1 TEMP              0 ****  ****    0 ROOT
