@<TRIPOS>MOLECULE
32B
   66    69     1     0     0
SMALL
bcc


@<TRIPOS>ATOM
      1 C1          0.2250   -0.0220   -0.9350 c3        1 32B     -0.094100
      2 C2          1.6690   -0.3150   -0.6270 c3        1 32B     -0.103400
      3 C3          1.9420   -0.4360    0.8850 c3        1 32B      0.259800
      4 C4          3.4340   -0.3140    1.1120 ca        1 32B     -0.114300
      5 C5          4.2770   -1.4030    1.3480 ca        1 32B     -0.116000
      6 C6          5.6410   -1.2200    1.5480 ca        1 32B     -0.127000
      7 C7          6.2280    0.0510    1.5070 ca        1 32B     -0.087600
      8 C8          5.3950    1.1490    1.2600 ca        1 32B      0.069100
      9 C9          4.0070    0.9710    1.0790 ca        1 32B      0.068100
     10 O10         3.1830    2.0530    0.7790 os        1 32B     -0.352900
     11 C11         2.9830    2.9390    1.8800 c3        1 32B      0.115700
     12 O12         5.8780    2.4600    1.3390 os        1 32B     -0.252200
     13 C13         6.2480    3.0360    0.1270 ca        1 32B      0.133100
     14 C14         7.0980    2.4010   -0.7890 ca        1 32B     -0.142000
     15 C15         7.4920    3.0930   -1.9310 ca        1 32B     -0.112000
     16 C16         7.0590    4.3990   -2.1660 ca        1 32B     -0.159000
     17 C17         6.2190    5.0160   -1.2370 ca        1 32B      0.023400
     18 C18         5.7980    4.3480   -0.0860 ca        1 32B     -0.147000
     19 Cl          5.6890    6.6180   -1.5140 cl        1 32B     -0.139400
     20 C20         7.7360    0.1420    1.7430 c         1 32B      0.920200
     21 O21         8.1360    0.1970    2.9330 o         1 32B     -0.812300
     22 O22         8.4810    0.1030    0.7230 o         1 32B     -0.812300
     23 N23         1.3650   -1.6010    1.5570 n3        1 32B     -0.753600
     24 C24         1.2560   -2.8100    0.7620 c3        1 32B      0.178800
     25 C25         0.8980   -4.0290    1.6150 c3        1 32B     -0.079400
     26 C26        -0.3550   -3.7830    2.4280 c3        1 32B     -0.095400
     27 C27        -0.1710   -2.5070    3.2630 c3        1 32B      0.111700
     28 C28         0.1560   -1.3190    2.3090 c3        1 32B      0.170800
     29 N29        -1.3040   -2.2140    4.1380 n         1 32B     -0.364000
     30 C30        -1.0990   -2.0550    5.4990 cc        1 32B      0.052600
     31 C31        -2.1040   -1.7620    6.3730 cd        1 32B     -0.273400
     32 C32        -3.4780   -1.5850    5.8750 c         1 32B      0.718700
     33 O33        -4.4690   -1.3190    6.5770 o         1 32B     -0.626500
     34 N34        -3.6550   -1.7320    4.4900 ns        1 32B     -0.588500
     35 C35        -2.6050   -2.0270    3.6030 c         1 32B      0.805500
     36 O36        -2.8490   -2.1240    2.3800 o         1 32B     -0.643500
     37 C37        -1.8830   -1.6100    7.8240 c3        1 32B     -0.025900
     38 H1         -0.1070    0.9100   -0.4160 hc        1 32B      0.029367
     39 H2         -0.4430   -0.8570   -0.6110 hc        1 32B      0.029367
     40 H3          0.0910    0.1250   -2.0350 hc        1 32B      0.029367
     41 H4          2.0000   -1.2420   -1.1610 hc        1 32B      0.058200
     42 H5          2.3040    0.5330   -1.0040 hc        1 32B      0.058200
     43 H6          1.4820    0.4910    1.3590 h1        1 32B      0.058700
     44 H7          3.8680   -2.4230    1.3970 ha        1 32B      0.122000
     45 H8          6.2900   -2.0870    1.7470 ha        1 32B      0.141000
     46 H9          2.3630    3.7640    1.4500 h1        1 32B      0.037367
     47 H10         3.9610    3.3290    2.2560 h1        1 32B      0.037367
     48 H11         2.4320    2.4160    2.6980 h1        1 32B      0.037367
     49 H12         7.4750    1.3790   -0.5710 ha        1 32B      0.221000
     50 H13         8.1660    2.6060   -2.6510 ha        1 32B      0.133000
     51 H14         7.3800    4.9350   -3.0700 ha        1 32B      0.130000
     52 H15         5.1340    4.8250    0.6490 ha        1 32B      0.147000
     53 H18         2.2470   -2.9920    0.2600 h1        1 32B      0.039200
     54 H19         0.4750   -2.7110   -0.0500 h1        1 32B      0.039200
     55 H20         1.7540   -4.2790    2.2950 hc        1 32B      0.047200
     56 H21         0.7350   -4.9030    0.9330 hc        1 32B      0.047200
     57 H22        -0.5530   -4.6590    3.0970 hc        1 32B      0.057700
     58 H23        -1.2370   -3.6630    1.7440 hc        1 32B      0.057700
     59 H24         0.7250   -2.6660    3.9390 h1        1 32B      0.076700
     60 H25         0.3290   -0.3950    2.9280 h1        1 32B      0.048700
     61 H26        -0.7380   -1.1390    1.6420 h1        1 32B      0.048700
     62 H27        -0.0550   -2.1830    5.8470 h4        1 32B      0.170000
     63 H28        -4.5600   -1.6060    4.0900 hn        1 32B      0.347500
     64 H29        -2.3790   -0.6760    8.1910 hc        1 32B      0.048367
     65 H30        -0.7930   -1.5610    8.0650 hc        1 32B      0.048367
     66 H31        -2.3350   -2.4750    8.3730 hc        1 32B      0.048367
@<TRIPOS>BOND
     1    1    2 1   
     2    1   38 1   
     3    1   39 1   
     4    1   40 1   
     5    2    3 1   
     6    2   41 1   
     7    2   42 1   
     8    3    4 1   
     9    3   23 1   
    10    3   43 1   
    11    4    5 ar  
    12    4    9 ar  
    13    5    6 ar  
    14    5   44 1   
    15    6    7 ar  
    16    6   45 1   
    17    7    8 ar  
    18    7   20 1   
    19    8    9 ar  
    20    8   12 1   
    21    9   10 1   
    22   10   11 1   
    23   11   46 1   
    24   11   47 1   
    25   11   48 1   
    26   12   13 1   
    27   13   14 ar  
    28   13   18 ar  
    29   14   15 ar  
    30   14   49 1   
    31   15   16 ar  
    32   15   50 1   
    33   16   17 ar  
    34   16   51 1   
    35   17   18 ar  
    36   17   19 1   
    37   18   52 1   
    38   20   21 1   
    39   20   22 1   
    40   23   24 1   
    41   23   28 1   
    42   24   25 1   
    43   24   53 1   
    44   24   54 1   
    45   25   26 1   
    46   25   55 1   
    47   25   56 1   
    48   26   27 1   
    49   26   57 1   
    50   26   58 1   
    51   27   28 1   
    52   27   29 1   
    53   27   59 1   
    54   28   60 1   
    55   28   61 1   
    56   29   30 1   
    57   29   35 1   
    58   30   31 2   
    59   30   62 1   
    60   31   32 1   
    61   31   37 1   
    62   32   33 2   
    63   32   34 1   
    64   34   35 1   
    65   34   63 1   
    66   35   36 2   
    67   37   64 1   
    68   37   65 1   
    69   37   66 1   
@<TRIPOS>SUBSTRUCTURE
     1 32B         1 TEMP              0 ****  ****    0 ROOT
