@<TRIPOS>MOLECULE
32B
   66    69     1     0     0
SMALL
bcc


@<TRIPOS>ATOM
      1 C1          0.2370   -0.0410   -0.9470 c3        1 32B     -0.094100
      2 C2          1.6800   -0.3320   -0.6290 c3        1 32B     -0.103400
      3 C3          1.9450   -0.4430    0.8850 c3        1 32B      0.259800
      4 C4          3.4360   -0.3190    1.1180 ca        1 32B     -0.114300
      5 C5          4.2780   -1.4060    1.3660 ca        1 32B     -0.116000
      6 C6          5.6410   -1.2220    1.5710 ca        1 32B     -0.127000
      7 C7          6.2280    0.0490    1.5240 ca        1 32B     -0.087600
      8 C8          5.3970    1.1450    1.2670 ca        1 32B      0.069100
      9 C9          4.0090    0.9660    1.0790 ca        1 32B      0.068100
     10 O10         3.1870    2.0460    0.7680 os        1 32B     -0.352900
     11 C11         2.9820    2.9390    1.8620 c3        1 32B      0.115700
     12 O12         5.8790    2.4570    1.3390 os        1 32B     -0.252200
     13 C13         6.2550    3.0250    0.1240 ca        1 32B      0.133100
     14 C14         7.1100    2.3840   -0.7830 ca        1 32B     -0.142000
     15 C15         7.5100    3.0680   -1.9270 ca        1 32B     -0.112000
     16 C16         7.0770    4.3720   -2.1730 ca        1 32B     -0.159000
     17 C17         6.2330    4.9960   -1.2520 ca        1 32B      0.023400
     18 C18         5.8060    4.3360   -0.0990 ca        1 32B     -0.147000
     19 CL          5.7050    6.5960   -1.5430 cl        1 32B     -0.139400
     20 C20         7.7350    0.1410    1.7680 c         1 32B      0.920200
     21 O21         8.1290    0.2040    2.9590 o         1 32B     -0.812300
     22 O22         8.4850    0.0960    0.7520 o         1 32B     -0.812300
     23 N23         1.3650   -1.6020    1.5620 n3        1 32B     -0.753600
     24 C24         1.2590   -2.8170    0.7750 c3        1 32B      0.178800
     25 C25         0.8980   -4.0300    1.6350 c3        1 32B     -0.079400
     26 C26        -0.3590   -3.7780    2.4400 c3        1 32B     -0.095400
     27 C27        -0.1780   -2.4970    3.2670 c3        1 32B      0.111700
     28 C28         0.1530   -1.3150    2.3060 c3        1 32B      0.170800
     29 N29        -1.3160   -2.1970    4.1350 n         1 32B     -0.364000
     30 C30        -1.1170   -2.0290    5.4960 cc        1 32B      0.052600
     31 C31        -2.1260   -1.7300    6.3640 cd        1 32B     -0.273400
     32 C32        -3.4970   -1.5570    5.8580 c         1 32B      0.718700
     33 O33        -4.4920   -1.2860    6.5540 o         1 32B     -0.626500
     34 N34        -3.6680   -1.7130    4.4730 n         1 32B     -0.588500
     35 C35        -2.6140   -2.0140    3.5930 c         1 32B      0.805500
     36 O36        -2.8520   -2.1190    2.3700 o         1 32B     -0.643500
     37 C37        -1.9110   -1.5680    7.8140 c3        1 32B     -0.025900
     38 H1          0.1090    0.0970   -2.0480 hc        1 32B      0.029367
     39 H2         -0.4320   -0.8730   -0.6200 hc        1 32B      0.029367
     40 H3         -0.0970    0.8950   -0.4360 hc        1 32B      0.029367
     41 H4          2.3170    0.5140   -1.0090 hc        1 32B      0.058200
     42 H5          2.0130   -1.2620   -1.1560 hc        1 32B      0.058200
     43 H6          1.4840    0.4880    1.3500 h1        1 32B      0.058700
     44 H7          3.8690   -2.4250    1.4190 ha        1 32B      0.122000
     45 H8          6.2890   -2.0870    1.7790 ha        1 32B      0.141000
     46 H9          2.3640    3.7620    1.4240 h1        1 32B      0.037367
     47 H10         2.4260    2.4210    2.6810 h1        1 32B      0.037367
     48 H11         3.9570    3.3310    2.2400 h1        1 32B      0.037367
     49 H12         7.4850    1.3630   -0.5560 ha        1 32B      0.221000
     50 H13         8.1870    2.5760   -2.6410 ha        1 32B      0.133000
     51 H14         7.4030    4.9030   -3.0780 ha        1 32B      0.130000
     52 H15         5.1390    4.8170    0.6300 ha        1 32B      0.147000
     53 H18         2.2530   -3.0020    0.2790 h1        1 32B      0.039200
     54 H19         0.4820   -2.7230   -0.0410 h1        1 32B      0.039200
     55 H20         0.7380   -4.9090    0.9580 hc        1 32B      0.047200
     56 H21         1.7500   -4.2750    2.3210 hc        1 32B      0.047200
     57 H22        -1.2380   -3.6630    1.7510 hc        1 32B      0.057700
     58 H23        -0.5600   -4.6490    3.1150 hc        1 32B      0.057700
     59 H24         0.7150   -2.6510    3.9480 h1        1 32B      0.076700
     60 H25        -0.7380   -1.1410    1.6340 h1        1 32B      0.048700
     61 H26         0.3230   -0.3870    2.9190 h1        1 32B      0.048700
     62 H27        -0.0740   -2.1540    5.8490 h4        1 32B      0.170000
     63 H28        -4.5710   -1.5910    4.0690 hn        1 32B      0.347500
     64 H29        -2.3640   -2.4300    8.3680 hc        1 32B      0.048367
     65 H30        -2.4090   -0.6320    8.1720 hc        1 32B      0.048367
     66 H31        -0.8220   -1.5160    8.0600 hc        1 32B      0.048367
@<TRIPOS>BOND
     1    1    2 1   
     2    1   38 1   
     3    1   39 1   
     4    1   40 1   
     5    2    3 1   
     6    2   41 1   
     7    2   42 1   
     8    3    4 1   
     9    3   23 1   
    10    3   43 1   
    11    4    5 ar  
    12    4    9 ar  
    13    5    6 ar  
    14    5   44 1   
    15    6    7 ar  
    16    6   45 1   
    17    7    8 ar  
    18    7   20 1   
    19    8    9 ar  
    20    8   12 1   
    21    9   10 1   
    22   10   11 1   
    23   11   46 1   
    24   11   47 1   
    25   11   48 1   
    26   12   13 1   
    27   13   14 ar  
    28   13   18 ar  
    29   14   15 ar  
    30   14   49 1   
    31   15   16 ar  
    32   15   50 1   
    33   16   17 ar  
    34   16   51 1   
    35   17   18 ar  
    36   17   19 1   
    37   18   52 1   
    38   20   21 1   
    39   20   22 1   
    40   23   24 1   
    41   23   28 1   
    42   24   25 1   
    43   24   53 1   
    44   24   54 1   
    45   25   26 1   
    46   25   55 1   
    47   25   56 1   
    48   26   27 1   
    49   26   57 1   
    50   26   58 1   
    51   27   28 1   
    52   27   29 1   
    53   27   59 1   
    54   28   60 1   
    55   28   61 1   
    56   29   30 1   
    57   29   35 1   
    58   30   31 2   
    59   30   62 1   
    60   31   32 1   
    61   31   37 1   
    62   32   33 2   
    63   32   34 1   
    64   34   35 1   
    65   34   63 1   
    66   35   36 2   
    67   37   64 1   
    68   37   65 1   
    69   37   66 1   
@<TRIPOS>SUBSTRUCTURE
     1 32B         1 TEMP              0 ****  ****    0 ROOT
