@<TRIPOS>MOLECULE
32C
   68    71     1     0     0
SMALL
bcc


@<TRIPOS>ATOM
      1 C1         -0.2650    0.6780    0.8000 c3        1 32C     -0.026900
      2 C2          1.1480    0.3840    0.4920 cc        1 32C     -0.272400
      3 C3          2.0990    0.2360    1.4590 cd        1 32C      0.051600
      4 N4          3.4280   -0.0340    1.1750 n         1 32C     -0.364000
      5 C5          3.8490   -0.1190   -0.1760 c         1 32C      0.805500
      6 O6          5.0410   -0.3200   -0.4970 o         1 32C     -0.644500
      7 N7          2.8810    0.0180   -1.1860 n         1 32C     -0.588500
      8 C8          1.5230    0.2640   -0.9260 c         1 32C      0.718700
      9 O9          0.7400    0.3580   -1.8880 o         1 32C     -0.626500
     10 C10         4.3900   -0.1680    2.2680 c3        1 32C      0.112700
     11 C11         5.1550   -1.5000    2.2520 c3        1 32C     -0.095400
     12 C12         6.0680   -1.5630    3.4580 c3        1 32C     -0.079400
     13 C13         6.9970   -0.3490    3.5170 c3        1 32C      0.179800
     14 N14         6.2620    0.9010    3.4660 n3        1 32C     -0.754600
     15 C15         5.4150    1.0060    2.2920 c3        1 32C      0.170800
     16 C16         7.0170    2.1120    3.7780 c3        1 32C      0.257800
     17 C17         8.5060    2.1150    3.3790 c3        1 32C     -0.099400
     18 C18         8.7510    2.1120    1.8780 c3        1 32C     -0.070700
     19 C19         8.2040    3.3600    1.2160 c3        1 32C     -0.090100
     20 C20        10.2390    1.9890    1.6120 c3        1 32C     -0.090100
     21 C21         6.9230    2.4960    5.2410 ca        1 32C     -0.139300
     22 C22         6.6920    1.5810    6.2720 ca        1 32C     -0.110000
     23 C23         6.6100    1.9950    7.5960 ca        1 32C     -0.125000
     24 C24         6.7670    3.3390    7.9570 ca        1 32C     -0.082600
     25 C25         6.9940    4.2670    6.9370 ca        1 32C      0.058100
     26 C26         7.0640    3.8600    5.5810 ca        1 32C      0.083900
     27 F27         7.2580    4.7910    4.6120 f         1 32C     -0.153900
     28 O28         6.9920    5.6400    7.1940 os        1 32C     -0.229200
     29 C29         8.2180    6.2270    7.4580 ca        1 32C      0.191100
     30 C30         8.1480    7.5330    7.9790 ca        1 32C     -0.143000
     31 C31         9.3260    8.2360    8.1970 ca        1 32C     -0.103000
     32 C32        10.5670    7.6660    7.9070 ca        1 32C     -0.176000
     33 C33        10.6160    6.3660    7.4020 ca        1 32C      0.053400
     34 C34         9.4530    5.6290    7.1730 ca        1 32C     -0.171000
     35 C36         6.6640    3.7040    9.4410 c         1 32C      0.917200
     36 O37         7.5100    4.5040    9.9150 o         1 32C     -0.809300
     37 O38         5.7450    3.1380   10.0940 o         1 32C     -0.809300
     38 CL         12.1330    5.6610    7.0500 cl        1 32C     -0.133400
     39 H1         -0.9340    0.0330    0.1770 hc        1 32C      0.048700
     40 H2         -0.4960    1.7460    0.5580 hc        1 32C      0.048700
     41 H3         -0.4900    0.4990    1.8800 hc        1 32C      0.048700
     42 H4          1.8440    0.3260    2.5340 h4        1 32C      0.171000
     43 H5          3.1990   -0.0520   -2.1280 hn        1 32C      0.347500
     44 H6          3.7920   -0.1270    3.2300 h1        1 32C      0.077700
     45 H7          4.4370   -2.3590    2.2730 hc        1 32C      0.058200
     46 H8          5.7610   -1.5770    1.3100 hc        1 32C      0.058200
     47 H9          5.4590   -1.6190    4.3970 hc        1 32C      0.048200
     48 H10         6.6970   -2.4880    3.4010 hc        1 32C      0.048200
     49 H11         7.7400   -0.4350    2.6700 h1        1 32C      0.039200
     50 H12         7.5760   -0.3770    4.4820 h1        1 32C      0.039200
     51 H14         4.8530    1.9790    2.3430 h1        1 32C      0.049700
     52 H15         6.0050    0.9860    1.3290 h1        1 32C      0.049700
     53 H16         6.5330    2.9680    3.2060 h1        1 32C      0.061700
     54 H17         9.0290    1.2380    3.8430 hc        1 32C      0.055700
     55 H18         8.9620    3.0440    3.8170 hc        1 32C      0.055700
     56 H19         8.2380    1.2180    1.4210 hc        1 32C      0.044700
     57 H20         7.0880    3.3250    1.1760 hc        1 32C      0.032867
     58 H21         8.5090    4.2730    1.7820 hc        1 32C      0.032867
     59 H22         8.5870    3.4440    0.1700 hc        1 32C      0.032867
     60 H23        10.6430    1.0590    2.0790 hc        1 32C      0.032867
     61 H24        10.4340    1.9480    0.5130 hc        1 32C      0.032867
     62 H25        10.7850    2.8650    2.0370 hc        1 32C      0.032867
     63 H26         6.5520    0.5140    6.0430 ha        1 32C      0.125000
     64 H27         6.3960    1.2720    8.4000 ha        1 32C      0.156000
     65 H28         7.1670    7.9620    8.2250 ha        1 32C      0.150000
     66 H29         9.2830    9.2530    8.6140 ha        1 32C      0.122000
     67 H30        11.4920    8.2320    8.0870 ha        1 32C      0.130000
     68 H31         9.4930    4.5960    6.8010 ha        1 32C      0.158000
@<TRIPOS>BOND
     1    1    2 1   
     2    1   39 1   
     3    1   40 1   
     4    1   41 1   
     5    2    3 2   
     6    2    8 1   
     7    3    4 1   
     8    3   42 1   
     9    4    5 1   
    10    4   10 1   
    11    5    6 2   
    12    5    7 1   
    13    7    8 1   
    14    7   43 1   
    15    8    9 2   
    16   10   11 1   
    17   10   15 1   
    18   10   44 1   
    19   11   12 1   
    20   11   45 1   
    21   11   46 1   
    22   12   13 1   
    23   12   47 1   
    24   12   48 1   
    25   13   14 1   
    26   13   49 1   
    27   13   50 1   
    28   14   15 1   
    29   14   16 1   
    30   15   51 1   
    31   15   52 1   
    32   16   17 1   
    33   16   21 1   
    34   16   53 1   
    35   17   18 1   
    36   17   54 1   
    37   17   55 1   
    38   18   19 1   
    39   18   20 1   
    40   18   56 1   
    41   19   57 1   
    42   19   58 1   
    43   19   59 1   
    44   20   60 1   
    45   20   61 1   
    46   20   62 1   
    47   21   22 ar  
    48   21   26 ar  
    49   22   23 ar  
    50   22   63 1   
    51   23   24 ar  
    52   23   64 1   
    53   24   25 ar  
    54   24   35 1   
    55   25   26 ar  
    56   25   28 1   
    57   26   27 1   
    58   28   29 1   
    59   29   30 ar  
    60   29   34 ar  
    61   30   31 ar  
    62   30   65 1   
    63   31   32 ar  
    64   31   66 1   
    65   32   33 ar  
    66   32   67 1   
    67   33   34 ar  
    68   33   38 1   
    69   34   68 1   
    70   35   36 1   
    71   35   37 1   
@<TRIPOS>SUBSTRUCTURE
     1 32C         1 TEMP              0 ****  ****    0 ROOT
