@<TRIPOS>MOLECULE
32C
   68    71     1     0     0
SMALL
bcc


@<TRIPOS>ATOM
      1 C1         -0.2620    0.6760    0.7900 c3        1 32C     -0.026900
      2 C2          1.1510    0.3800    0.4860 cc        1 32C     -0.272400
      3 C3          2.1000    0.2340    1.4550 cd        1 32C      0.051600
      4 N4          3.4290   -0.0390    1.1750 n         1 32C     -0.364000
      5 C5          3.8530   -0.1290   -0.1760 c         1 32C      0.805500
      6 O6          5.0450   -0.3310   -0.4940 o         1 32C     -0.644500
      7 N7          2.8870    0.0080   -1.1880 n         1 32C     -0.588500
      8 C8          1.5280    0.2550   -0.9310 c         1 32C      0.718700
      9 O9          0.7480    0.3470   -1.8950 o         1 32C     -0.626500
     10 C10         4.3880   -0.1710    2.2700 c3        1 32C      0.112700
     11 C11         5.1520   -1.5040    2.2590 c3        1 32C     -0.096400
     12 C12         6.0620   -1.5650    3.4670 c3        1 32C     -0.079400
     13 C13         6.9920   -0.3520    3.5250 c3        1 32C      0.179800
     14 N14         6.2590    0.8990    3.4690 n3        1 32C     -0.754600
     15 C15         5.4150    1.0010    2.2930 c3        1 32C      0.170800
     16 C16         7.0160    2.1100    3.7790 c3        1 32C      0.257800
     17 C17         8.5050    2.1090    3.3820 c3        1 32C     -0.099400
     18 C18         8.7510    2.1020    1.8810 c3        1 32C     -0.070700
     19 C19         8.2060    3.3490    1.2140 c3        1 32C     -0.090100
     20 C20        10.2400    1.9790    1.6160 c3        1 32C     -0.090100
     21 C21         6.9210    2.4970    5.2410 ca        1 32C     -0.139300
     22 C22         6.6860    1.5850    6.2730 ca        1 32C     -0.110000
     23 C23         6.6030    2.0020    7.5970 ca        1 32C     -0.125000
     24 C24         6.7640    3.3460    7.9550 ca        1 32C     -0.082600
     25 C25         6.9940    4.2720    6.9330 ca        1 32C      0.058100
     26 C26         7.0650    3.8610    5.5780 ca        1 32C      0.084900
     27 F27         7.2630    4.7900    4.6070 f         1 32C     -0.153900
     28 O28         6.9970    5.6450    7.1870 os        1 32C     -0.229200
     29 C29         8.2240    6.2290    7.4510 ca        1 32C      0.191100
     30 C30         8.1560    7.5380    7.9650 ca        1 32C     -0.143000
     31 C31         9.3360    8.2390    8.1830 ca        1 32C     -0.103000
     32 C32        10.5760    7.6630    7.9000 ca        1 32C     -0.176000
     33 C33        10.6230    6.3590    7.4020 ca        1 32C      0.054400
     34 C34         9.4570    5.6250    7.1740 ca        1 32C     -0.171000
     35 C36         6.6600    3.7150    9.4380 c         1 32C      0.917200
     36 O37         7.5090    4.5120    9.9120 o         1 32C     -0.809300
     37 O38         5.7370    3.1550   10.0900 o         1 32C     -0.809300
     38 CL         12.1370    5.6480    7.0590 cl        1 32C     -0.133400
     39 H1         -0.4920    1.7440    0.5430 hc        1 32C      0.048700
     40 H2         -0.4890    0.5020    1.8700 hc        1 32C      0.048700
     41 H3         -0.9310    0.0290    0.1680 hc        1 32C      0.048700
     42 H4          1.8420    0.3260    2.5290 h4        1 32C      0.171000
     43 H5          3.2070   -0.0660   -2.1290 hn        1 32C      0.347500
     44 H6          3.7890   -0.1270    3.2310 h1        1 32C      0.077700
     45 H7          4.4320   -2.3620    2.2810 hc        1 32C      0.058200
     46 H8          5.7590   -1.5850    1.3190 hc        1 32C      0.058200
     47 H9          6.6910   -2.4910    3.4140 hc        1 32C      0.048200
     48 H10         5.4510   -1.6180    4.4050 hc        1 32C      0.048200
     49 H11         7.5700   -0.3790    4.4900 h1        1 32C      0.039200
     50 H12         7.7370   -0.4420    2.6790 h1        1 32C      0.039200
     51 H14         6.0060    0.9780    1.3310 h1        1 32C      0.049700
     52 H15         4.8540    1.9750    2.3410 h1        1 32C      0.049700
     53 H16         6.5340    2.9650    3.2040 h1        1 32C      0.061700
     54 H17         8.9620    3.0390    3.8170 hc        1 32C      0.055700
     55 H18         9.0260    1.2340    3.8480 hc        1 32C      0.055700
     56 H19         8.2390    1.2070    1.4260 hc        1 32C      0.044700
     57 H20         7.0900    3.3130    1.1730 hc        1 32C      0.032867
     58 H21         8.5100    4.2630    1.7790 hc        1 32C      0.032867
     59 H22         8.5900    3.4300    0.1690 hc        1 32C      0.032867
     60 H23        10.7850    2.8560    2.0400 hc        1 32C      0.032867
     61 H24        10.4370    1.9350    0.5180 hc        1 32C      0.032867
     62 H25        10.6440    1.0500    2.0870 hc        1 32C      0.032867
     63 H26         6.5430    0.5180    6.0470 ha        1 32C      0.125000
     64 H27         6.3860    1.2810    8.4020 ha        1 32C      0.156000
     65 H28         7.1760    7.9720    8.2050 ha        1 32C      0.150000
     66 H29         9.2950    9.2580    8.5940 ha        1 32C      0.122000
     67 H30        11.5020    8.2260    8.0800 ha        1 32C      0.130000
     68 H31         9.4950    4.5900    6.8080 ha        1 32C      0.158000
@<TRIPOS>BOND
     1    1    2 1   
     2    1   39 1   
     3    1   40 1   
     4    1   41 1   
     5    2    3 2   
     6    2    8 1   
     7    3    4 1   
     8    3   42 1   
     9    4    5 1   
    10    4   10 1   
    11    5    6 2   
    12    5    7 1   
    13    7    8 1   
    14    7   43 1   
    15    8    9 2   
    16   10   11 1   
    17   10   15 1   
    18   10   44 1   
    19   11   12 1   
    20   11   45 1   
    21   11   46 1   
    22   12   13 1   
    23   12   47 1   
    24   12   48 1   
    25   13   14 1   
    26   13   49 1   
    27   13   50 1   
    28   14   15 1   
    29   14   16 1   
    30   15   51 1   
    31   15   52 1   
    32   16   17 1   
    33   16   21 1   
    34   16   53 1   
    35   17   18 1   
    36   17   54 1   
    37   17   55 1   
    38   18   19 1   
    39   18   20 1   
    40   18   56 1   
    41   19   57 1   
    42   19   58 1   
    43   19   59 1   
    44   20   60 1   
    45   20   61 1   
    46   20   62 1   
    47   21   22 ar  
    48   21   26 ar  
    49   22   23 ar  
    50   22   63 1   
    51   23   24 ar  
    52   23   64 1   
    53   24   25 ar  
    54   24   35 1   
    55   25   26 ar  
    56   25   28 1   
    57   26   27 1   
    58   28   29 1   
    59   29   30 ar  
    60   29   34 ar  
    61   30   31 ar  
    62   30   65 1   
    63   31   32 ar  
    64   31   66 1   
    65   32   33 ar  
    66   32   67 1   
    67   33   34 ar  
    68   33   38 1   
    69   34   68 1   
    70   35   36 1   
    71   35   37 1   
@<TRIPOS>SUBSTRUCTURE
     1 32C         1 TEMP              0 ****  ****    0 ROOT
