@<TRIPOS>MOLECULE
32C
   68    71     1     0     0
SMALL
bcc


@<TRIPOS>ATOM
      1 C1         -0.2610    0.6840    0.7880 c3        1 32C     -0.026900
      2 C2          1.1520    0.3880    0.4830 cc        1 32C     -0.272400
      3 C3          2.1010    0.2400    1.4520 cd        1 32C      0.051600
      4 N4          3.4300   -0.0330    1.1720 n         1 32C     -0.364000
      5 C5          3.8540   -0.1210   -0.1780 c         1 32C      0.805500
      6 O6          5.0460   -0.3230   -0.4960 o         1 32C     -0.644500
      7 N7          2.8880    0.0170   -1.1900 ns        1 32C     -0.588500
      8 C8          1.5300    0.2650   -0.9340 c         1 32C      0.718700
      9 O9          0.7490    0.3590   -1.8970 o         1 32C     -0.626500
     10 C10         4.3890   -0.1670    2.2670 c3        1 32C      0.112700
     11 C11         5.1520   -1.5000    2.2550 c3        1 32C     -0.095400
     12 C12         6.0620   -1.5630    3.4630 c3        1 32C     -0.079400
     13 C13         6.9930   -0.3500    3.5220 c3        1 32C      0.179800
     14 N14         6.2600    0.9010    3.4680 n3        1 32C     -0.754600
     15 C15         5.4160    1.0050    2.2920 c3        1 32C      0.170800
     16 C16         7.0170    2.1110    3.7800 c3        1 32C      0.257800
     17 C17         8.5060    2.1110    3.3840 c3        1 32C     -0.099400
     18 C18         8.7540    2.1050    1.8830 c3        1 32C     -0.070700
     19 C19         8.2110    3.3540    1.2180 c3        1 32C     -0.090100
     20 C20        10.2430    1.9800    1.6200 c3        1 32C     -0.090100
     21 C21         6.9210    2.4970    5.2420 ca        1 32C     -0.139300
     22 C22         6.6860    1.5840    6.2740 ca        1 32C     -0.110000
     23 C23         6.6020    2.0000    7.5970 ca        1 32C     -0.125000
     24 C24         6.7610    3.3440    7.9570 ca        1 32C     -0.082600
     25 C25         6.9900    4.2710    6.9350 ca        1 32C      0.058100
     26 C26         7.0620    3.8610    5.5800 ca        1 32C      0.083900
     27 F27         7.2600    4.7910    4.6110 f         1 32C     -0.153900
     28 O28         6.9900    5.6440    7.1910 os        1 32C     -0.229200
     29 C29         8.2170    6.2290    7.4560 ca        1 32C      0.191100
     30 C30         8.1470    7.5350    7.9780 ca        1 32C     -0.143000
     31 C31         9.3260    8.2370    8.1980 ca        1 32C     -0.103000
     32 C32        10.5670    7.6660    7.9080 ca        1 32C     -0.176000
     33 C33        10.6150    6.3650    7.4030 ca        1 32C      0.053400
     34 C34         9.4510    5.6300    7.1730 ca        1 32C     -0.171000
     35 C36         6.6550    3.7110    9.4400 c         1 32C      0.917200
     36 O37         7.5000    4.5130    9.9140 o         1 32C     -0.809300
     37 O38         5.7350    3.1460   10.0920 o         1 32C     -0.809300
     38 Cl         12.1310    5.6600    7.0520 cl        1 32C     -0.133400
     39 H1         -0.9300    0.0380    0.1650 hc        1 32C      0.048700
     40 H2         -0.4880    0.5090    1.8670 hc        1 32C      0.048700
     41 H3         -0.4900    1.7520    0.5430 hc        1 32C      0.048700
     42 H4          1.8430    0.3310    2.5260 h4        1 32C      0.171000
     43 H5          3.2090   -0.0550   -2.1320 hn        1 32C      0.347500
     44 H6          3.7890   -0.1230    3.2280 h1        1 32C      0.077700
     45 H7          4.4330   -2.3580    2.2750 hc        1 32C      0.058200
     46 H8          5.7600   -1.5790    1.3140 hc        1 32C      0.058200
     47 H9          5.4510   -1.6170    4.4010 hc        1 32C      0.048200
     48 H10         6.6910   -2.4890    3.4090 hc        1 32C      0.048200
     49 H11         7.5710   -0.3780    4.4880 h1        1 32C      0.039200
     50 H12         7.7380   -0.4390    2.6760 h1        1 32C      0.039200
     51 H14         6.0080    0.9830    1.3300 h1        1 32C      0.049700
     52 H15         4.8550    1.9800    2.3410 h1        1 32C      0.049700
     53 H16         6.5360    2.9670    3.2060 h1        1 32C      0.061700
     54 H17         8.9630    3.0410    3.8210 hc        1 32C      0.055700
     55 H18         9.0270    1.2350    3.8500 hc        1 32C      0.055700
     56 H19         8.2410    1.2120    1.4270 hc        1 32C      0.044700
     57 H20         8.5960    3.4360    0.1730 hc        1 32C      0.032867
     58 H21         7.0950    3.3190    1.1760 hc        1 32C      0.032867
     59 H22         8.5160    4.2670    1.7840 hc        1 32C      0.032867
     60 H23        10.4410    1.9370    0.5220 hc        1 32C      0.032867
     61 H24        10.6450    1.0500    2.0900 hc        1 32C      0.032867
     62 H25        10.7890    2.8560    2.0460 hc        1 32C      0.032867
     63 H26         6.5450    0.5170    6.0460 ha        1 32C      0.125000
     64 H27         6.3860    1.2780    8.4020 ha        1 32C      0.156000
     65 H28         7.1670    7.9650    8.2230 ha        1 32C      0.150000
     66 H29         9.2830    9.2540    8.6140 ha        1 32C      0.122000
     67 H30        11.4920    8.2300    8.0890 ha        1 32C      0.130000
     68 H31         9.4900    4.5970    6.8000 ha        1 32C      0.158000
@<TRIPOS>BOND
     1    1    2 1   
     2    1   39 1   
     3    1   40 1   
     4    1   41 1   
     5    2    3 2   
     6    2    8 1   
     7    3    4 1   
     8    3   42 1   
     9    4    5 1   
    10    4   10 1   
    11    5    6 2   
    12    5    7 1   
    13    7    8 1   
    14    7   43 1   
    15    8    9 2   
    16   10   11 1   
    17   10   15 1   
    18   10   44 1   
    19   11   12 1   
    20   11   45 1   
    21   11   46 1   
    22   12   13 1   
    23   12   47 1   
    24   12   48 1   
    25   13   14 1   
    26   13   49 1   
    27   13   50 1   
    28   14   15 1   
    29   14   16 1   
    30   15   51 1   
    31   15   52 1   
    32   16   17 1   
    33   16   21 1   
    34   16   53 1   
    35   17   18 1   
    36   17   54 1   
    37   17   55 1   
    38   18   19 1   
    39   18   20 1   
    40   18   56 1   
    41   19   57 1   
    42   19   58 1   
    43   19   59 1   
    44   20   60 1   
    45   20   61 1   
    46   20   62 1   
    47   21   22 ar  
    48   21   26 ar  
    49   22   23 ar  
    50   22   63 1   
    51   23   24 ar  
    52   23   64 1   
    53   24   25 ar  
    54   24   35 1   
    55   25   26 ar  
    56   25   28 1   
    57   26   27 1   
    58   28   29 1   
    59   29   30 ar  
    60   29   34 ar  
    61   30   31 ar  
    62   30   65 1   
    63   31   32 ar  
    64   31   66 1   
    65   32   33 ar  
    66   32   67 1   
    67   33   34 ar  
    68   33   38 1   
    69   34   68 1   
    70   35   36 1   
    71   35   37 1   
@<TRIPOS>SUBSTRUCTURE
     1 32C         1 TEMP              0 ****  ****    0 ROOT
