@<TRIPOS>MOLECULE
32D
   49    53     1     0     0
SMALL
bcc


@<TRIPOS>ATOM
      1 C1          0.2340   -0.7980    0.1660 ca        1 32D     -0.056000
      2 C2          1.6010   -0.4680    0.1410 ca        1 32D     -0.095000
      3 C3          2.2250   -0.1590    1.3340 ca        1 32D     -0.049300
      4 C4          1.4940   -0.1900    2.5560 ca        1 32D     -0.273900
      5 C5          0.1390   -0.5170    2.5750 ca        1 32D      0.167900
      6 C6         -0.4950   -0.8230    1.3510 ca        1 32D     -0.136000
      7 F7         -0.5430   -0.5430    3.7450 f         1 32D     -0.140900
      8 C8          2.4760    0.1400    3.6120 ce        1 32D      0.495800
      9 N9          3.6960    0.3500    3.1790 n2        1 32D     -0.475900
     10 C10         3.6850    0.2030    1.6700 c3        1 32D      0.284100
     11 C11         4.1270    1.5250    1.0840 ca        1 32D     -0.111300
     12 C12         3.2850    2.2900    0.2720 ca        1 32D     -0.113000
     13 C13         3.7310    3.5110   -0.2350 ca        1 32D     -0.121000
     14 C14         5.0050    3.9810    0.0710 ca        1 32D     -0.093000
     15 C15         5.8570    3.2270    0.8930 cp        1 32D     -0.015000
     16 C16         5.4090    1.9970    1.3950 ca        1 32D     -0.097000
     17 C17         7.1860    3.7110    1.2220 cp        1 32D     -0.296600
     18 C18         7.9790    4.4200    0.2850 ca        1 32D      0.443700
     19 N19         9.2110    4.8740    0.5790 nb        1 32D     -0.680500
     20 C20         9.6630    4.6160    1.8380 ca        1 32D      0.646900
     21 N21         8.9940    3.9470    2.8170 nb        1 32D     -0.680500
     22 C22         7.7640    3.5030    2.4980 ca        1 32D      0.443700
     23 C24         4.5750   -0.9480    1.2470 ca        1 32D     -0.059300
     24 C25         5.4650   -0.8250    0.1770 ca        1 32D     -0.202300
     25 C26         6.2400   -1.9470   -0.1850 ca        1 32D      0.409200
     26 N27         6.1780   -3.1330    0.4410 nb        1 32D     -0.613000
     27 C28         5.3110   -3.2410    1.4740 ca        1 32D      0.337600
     28 C29         4.4910   -2.1830    1.9050 ca        1 32D     -0.202300
     29 C30         5.2190   -4.6010    2.1890 c3        1 32D      0.360600
     30 F31         4.9180   -4.4480    3.5260 f         1 32D     -0.238800
     31 F32         4.1520   -5.3370    1.7260 f         1 32D     -0.238800
     32 N34         2.0680    0.2180    5.0190 nz        1 32D     -0.781600
     33 H1         -0.2730   -1.0480   -0.7820 ha        1 32D      0.174000
     34 H2          2.1540   -0.4640   -0.8120 ha        1 32D      0.176000
     35 H6         -1.5660   -1.0850    1.3510 ha        1 32D      0.182000
     36 H341        2.7200   -0.3110    5.6130 hn        1 32D      0.481133
     37 H342        1.1190   -0.1770    5.1060 hn        1 32D      0.481133
     38 H12         2.2720    1.9420    0.0180 ha        1 32D      0.140000
     39 H16         6.0770    1.3930    2.0300 ha        1 32D      0.152000
     40 H13         3.0670    4.1070   -0.8800 ha        1 32D      0.154000
     41 H14         5.3430    4.9520   -0.3250 ha        1 32D      0.155000
     42 H18         7.6120    4.6220   -0.7380 h4        1 32D      0.030100
     43 H22         7.2150    2.9680    3.2930 h4        1 32D      0.030100
     44 H20        10.6790    4.9870    2.0900 h5        1 32D      0.070100
     45 H25         5.5750    0.1180   -0.3790 ha        1 32D      0.168000
     46 H29         3.8010   -2.3530    2.7430 ha        1 32D      0.145000
     47 H26         6.9560   -1.8870   -1.0280 h4        1 32D      0.049100
     48 H30         6.1820   -5.1860    2.0720 h2        1 32D      0.113700
     49 H343        2.0600    1.2010    5.3210 hn        1 32D      0.481133
@<TRIPOS>BOND
     1    1    2 ar  
     2    1    6 ar  
     3    1   33 1   
     4    2    3 ar  
     5    2   34 1   
     6    3    4 ar  
     7    3   10 1   
     8    4    5 ar  
     9    4    8 1   
    10    5    6 ar  
    11    5    7 1   
    12    6   35 1   
    13    8    9 2   
    14    8   32 1   
    15    9   10 1   
    16   10   11 1   
    17   10   23 1   
    18   11   12 ar  
    19   11   16 ar  
    20   12   13 ar  
    21   12   38 1   
    22   13   14 ar  
    23   13   40 1   
    24   14   15 ar  
    25   14   41 1   
    26   15   16 ar  
    27   15   17 1   
    28   16   39 1   
    29   17   18 ar  
    30   17   22 ar  
    31   18   19 ar  
    32   18   42 1   
    33   19   20 ar  
    34   20   21 ar  
    35   20   44 1   
    36   21   22 ar  
    37   22   43 1   
    38   23   24 ar  
    39   23   28 ar  
    40   24   25 ar  
    41   24   45 1   
    42   25   26 ar  
    43   25   47 1   
    44   26   27 ar  
    45   27   28 ar  
    46   27   29 1   
    47   28   46 1   
    48   29   30 1   
    49   29   31 1   
    50   29   48 1   
    51   32   36 1   
    52   32   37 1   
    53   32   49 1   
@<TRIPOS>SUBSTRUCTURE
     1 32D         1 TEMP              0 ****  ****    0 ROOT
