@<TRIPOS>MOLECULE
32D
   48    52     1     0     0
SMALL
bcc


@<TRIPOS>ATOM
      1 C1          3.5460   -2.5550   -1.2740 ca        1 32D     -0.089000
      2 C2          2.5690   -1.5540   -1.3870 ca        1 32D     -0.123000
      3 C3          2.0670   -0.9900   -0.2300 ca        1 32D     -0.063300
      4 C4          2.5170   -1.4250    1.0440 ca        1 32D     -0.237900
      5 C5          3.4860   -2.4210    1.1510 ca        1 32D      0.167900
      6 C6          4.0060   -2.9870   -0.0370 ca        1 32D     -0.166000
      7 F7          3.9240   -2.8550    2.3550 f         1 32D     -0.135900
      8 C8          1.7410   -0.6390    2.0580 ce        1 32D      0.666800
      9 N9          0.8590    0.1830    1.4940 n2        1 32D     -0.650900
     10 C10         0.9890    0.0860    0.0080 c3        1 32D      0.271100
     11 C11        -0.2890   -0.3570   -0.6810 ca        1 32D     -0.067300
     12 C12        -0.3900   -0.1920   -2.0700 ca        1 32D     -0.118000
     13 C13        -1.5360   -0.6010   -2.7460 ca        1 32D     -0.127000
     14 C14        -2.5950   -1.1800   -2.0490 ca        1 32D     -0.111000
     15 C15        -2.5080   -1.3510   -0.6610 cp        1 32D     -0.039000
     16 C16        -1.3500   -0.9360    0.0180 ca        1 32D     -0.088000
     17 C17        -3.6070   -1.9520    0.0750 cp        1 32D     -0.262600
     18 C18        -4.9600   -1.6930   -0.2540 ca        1 32D      0.433200
     19 N19        -5.9880   -2.2460    0.4170 nb        1 32D     -0.690000
     20 C20        -5.6540   -3.0750    1.4440 ca        1 32D      0.626900
     21 N21        -4.3970   -3.3980    1.8520 nb        1 32D     -0.690000
     22 C22        -3.3880   -2.8330    1.1630 ca        1 32D      0.433200
     23 C24         1.3970    1.4470   -0.5260 ca        1 32D     -0.029300
     24 C25         2.5900    1.6640   -1.2160 ca        1 32D     -0.230300
     25 C26         2.8860    2.9700   -1.6570 ca        1 32D      0.391200
     26 N27         2.0890    4.0290   -1.4490 nb        1 32D     -0.641000
     27 C28         0.9340    3.8070   -0.7740 ca        1 32D      0.318600
     28 C29         0.5500    2.5440   -0.2950 ca        1 32D     -0.173300
     29 C30         0.0380    5.0310   -0.5280 c3        1 32D      0.365600
     30 F31        -0.5150    5.5170   -1.6910 f         1 32D     -0.238800
     31 F32        -1.0750    4.7340    0.2270 f         1 32D     -0.238800
     32 N34         2.0170   -0.7500    3.4040 nh        1 32D     -0.898800
     33 H1          3.9550   -3.0110   -2.1900 ha        1 32D      0.145000
     34 H2          2.2080   -1.2360   -2.3760 ha        1 32D      0.150000
     35 H6          4.7720   -3.7730    0.0370 ha        1 32D      0.156000
     36 H341        2.4650   -1.5900    3.6890 hn        1 32D      0.429300
     37 H342        1.3760   -0.3430    4.0450 hn        1 32D      0.429300
     38 H12         0.4370    0.2740   -2.6280 ha        1 32D      0.137000
     39 H16        -1.3070   -1.0630    1.1110 ha        1 32D      0.150000
     40 H13        -1.6080   -0.4650   -3.8360 ha        1 32D      0.138000
     41 H14        -3.4960   -1.5060   -2.5880 ha        1 32D      0.137000
     42 H18        -5.2220   -1.0100   -1.0830 h4        1 32D      0.032100
     43 H22        -2.3640   -3.0950    1.4850 h4        1 32D      0.032100
     44 H20        -6.4940   -3.5350    2.0040 h5        1 32D      0.056100
     45 H25         3.3000    0.8490   -1.4150 ha        1 32D      0.151000
     46 H29        -0.3960    2.4170    0.2550 ha        1 32D      0.177000
     47 H26         3.8220    3.1780   -2.2060 h4        1 32D      0.028100
     48 H30         0.6410    5.8430   -0.0170 h2        1 32D      0.085700
@<TRIPOS>BOND
     1    1    2 ar  
     2    1    6 ar  
     3    1   33 1   
     4    2    3 ar  
     5    2   34 1   
     6    3    4 ar  
     7    3   10 1   
     8    4    5 ar  
     9    4    8 1   
    10    5    6 ar  
    11    5    7 1   
    12    6   35 1   
    13    8    9 2   
    14    8   32 1   
    15    9   10 1   
    16   10   11 1   
    17   10   23 1   
    18   11   12 ar  
    19   11   16 ar  
    20   12   13 ar  
    21   12   38 1   
    22   13   14 ar  
    23   13   40 1   
    24   14   15 ar  
    25   14   41 1   
    26   15   16 ar  
    27   15   17 1   
    28   16   39 1   
    29   17   18 ar  
    30   17   22 ar  
    31   18   19 ar  
    32   18   42 1   
    33   19   20 ar  
    34   20   21 ar  
    35   20   44 1   
    36   21   22 ar  
    37   22   43 1   
    38   23   24 ar  
    39   23   28 ar  
    40   24   25 ar  
    41   24   45 1   
    42   25   26 ar  
    43   25   47 1   
    44   26   27 ar  
    45   27   28 ar  
    46   27   29 1   
    47   28   46 1   
    48   29   30 1   
    49   29   31 1   
    50   29   48 1   
    51   32   36 1   
    52   32   37 1   
@<TRIPOS>SUBSTRUCTURE
     1 32D         1 TEMP              0 ****  ****    0 ROOT
