@<TRIPOS>MOLECULE
32D
   49    53     1     0     0
SMALL
bcc


@<TRIPOS>ATOM
      1 C1          0.2340   -0.8170    0.1860 ca        1 32D     -0.056000
      2 C2          1.6000   -0.4840    0.1550 ca        1 32D     -0.095000
      3 C3          2.2260   -0.1650    1.3450 ca        1 32D     -0.049300
      4 C4          1.4980   -0.1890    2.5680 ca        1 32D     -0.273900
      5 C5          0.1430   -0.5180    2.5930 ca        1 32D      0.167900
      6 C6         -0.4930   -0.8350    1.3730 ca        1 32D     -0.136000
      7 F7         -0.5360   -0.5380    3.7650 f         1 32D     -0.140900
      8 C8          2.4810    0.1520    3.6190 ce        1 32D      0.495800
      9 N9          3.7010    0.3610    3.1820 n2        1 32D     -0.475900
     10 C10         3.6860    0.2020    1.6740 c3        1 32D      0.284100
     11 C11         4.1240    1.5220    1.0770 ca        1 32D     -0.111300
     12 C12         3.2790    2.2770    0.2610 ca        1 32D     -0.113000
     13 C13         3.7200    3.4960   -0.2560 ca        1 32D     -0.121000
     14 C14         4.9930    3.9720    0.0440 ca        1 32D     -0.093000
     15 C15         5.8490    3.2250    0.8690 cp        1 32D     -0.015000
     16 C16         5.4050    1.9990    1.3820 ca        1 32D     -0.097000
     17 C17         7.1780    3.7150    1.1910 cp        1 32D     -0.296600
     18 C18         7.9670    4.4190    0.2480 ca        1 32D      0.443700
     19 N19         9.1980    4.8780    0.5360 nb        1 32D     -0.680500
     20 C20         9.6540    4.6300    1.7950 ca        1 32D      0.646900
     21 N21         8.9890    3.9680    2.7810 nb        1 32D     -0.680500
     22 C22         7.7590    3.5180    2.4670 ca        1 32D      0.443700
     23 C24         4.5780   -0.9500    1.2580 ca        1 32D     -0.059300
     24 C25         5.4650   -0.8320    0.1850 ca        1 32D     -0.202300
     25 C26         6.2420   -1.9550   -0.1710 ca        1 32D      0.409200
     26 N27         6.1840   -3.1370    0.4640 nb        1 32D     -0.613000
     27 C28         5.3190   -3.2390    1.5000 ca        1 32D      0.337600
     28 C29         4.4980   -2.1800    1.9250 ca        1 32D     -0.202300
     29 C30         5.2320   -4.5940    2.2250 c3        1 32D      0.360600
     30 F31         4.9340   -4.4320    3.5620 f         1 32D     -0.238800
     31 F32         4.1660   -5.3360    1.7710 f         1 32D     -0.238800
     32 N34         2.0770    0.2390    5.0260 n4        1 32D     -0.781600
     33 H1         -0.2750   -1.0760   -0.7590 ha        1 32D      0.174000
     34 H2          2.1510   -0.4860   -0.7990 ha        1 32D      0.176000
     35 H6         -1.5630   -1.1000    1.3770 ha        1 32D      0.182000
     36 H341        1.1280   -0.1570    5.1180 hn        1 32D      0.481133
     37 H342        2.0680    1.2240    5.3210 hn        1 32D      0.481133
     38 H12         2.2660    1.9250    0.0120 ha        1 32D      0.140000
     39 H16         6.0760    1.4010    2.0200 ha        1 32D      0.152000
     40 H13         3.0530    4.0860   -0.9040 ha        1 32D      0.154000
     41 H14         5.3290    4.9410   -0.3610 ha        1 32D      0.155000
     42 H18         7.5980    4.6130   -0.7760 h4        1 32D      0.030100
     43 H22         7.2140    2.9870    3.2680 h4        1 32D      0.030100
     44 H20        10.6700    5.0070    2.0420 h5        1 32D      0.070100
     45 H25         5.5720    0.1060   -0.3790 ha        1 32D      0.168000
     46 H29         3.8100   -2.3450    2.7650 ha        1 32D      0.145000
     47 H26         6.9560   -1.9000   -1.0150 h4        1 32D      0.049100
     48 H30         6.1960   -5.1780    2.1100 h2        1 32D      0.113700
     49 H343        2.7310   -0.2850    5.6230 hn        1 32D      0.481133
@<TRIPOS>BOND
     1    1    2 ar  
     2    1    6 ar  
     3    1   33 1   
     4    2    3 ar  
     5    2   34 1   
     6    3    4 ar  
     7    3   10 1   
     8    4    5 ar  
     9    4    8 1   
    10    5    6 ar  
    11    5    7 1   
    12    6   35 1   
    13    8    9 2   
    14    8   32 1   
    15    9   10 1   
    16   10   11 1   
    17   10   23 1   
    18   11   12 ar  
    19   11   16 ar  
    20   12   13 ar  
    21   12   38 1   
    22   13   14 ar  
    23   13   40 1   
    24   14   15 ar  
    25   14   41 1   
    26   15   16 ar  
    27   15   17 1   
    28   16   39 1   
    29   17   18 ar  
    30   17   22 ar  
    31   18   19 ar  
    32   18   42 1   
    33   19   20 ar  
    34   20   21 ar  
    35   20   44 1   
    36   21   22 ar  
    37   22   43 1   
    38   23   24 ar  
    39   23   28 ar  
    40   24   25 ar  
    41   24   45 1   
    42   25   26 ar  
    43   25   47 1   
    44   26   27 ar  
    45   27   28 ar  
    46   27   29 1   
    47   28   46 1   
    48   29   30 1   
    49   29   31 1   
    50   29   48 1   
    51   32   36 1   
    52   32   37 1   
    53   32   49 1   
@<TRIPOS>SUBSTRUCTURE
     1 32D         1 TEMP              0 ****  ****    0 ROOT
