@<TRIPOS>MOLECULE
32D
   49    53     1     0     0
SMALL
bcc


@<TRIPOS>ATOM
      1 C1          0.2340   -0.8580    0.2280 ca        1 32D     -0.056000
      2 C2          1.5980   -0.5200    0.1850 ca        1 32D     -0.095000
      3 C3          2.2280   -0.1770    1.3660 ca        1 32D     -0.049300
      4 C4          1.5060   -0.1830    2.5930 ca        1 32D     -0.273900
      5 C5          0.1530   -0.5180    2.6290 ca        1 32D      0.167900
      6 C6         -0.4870   -0.8580    1.4180 ca        1 32D     -0.136000
      7 F7         -0.5210   -0.5200    3.8040 f         1 32D     -0.140900
      8 C8          2.4920    0.1790    3.6340 ce        1 32D      0.495800
      9 N9          3.7090    0.3860    3.1870 n2        1 32D     -0.475900
     10 C10         3.6880    0.2020    1.6830 c3        1 32D      0.284100
     11 C11         4.1170    1.5130    1.0610 ca        1 32D     -0.111300
     12 C12         3.2650    2.2510    0.2360 ca        1 32D     -0.113000
     13 C13         3.6990    3.4620   -0.3040 ca        1 32D     -0.121000
     14 C14         4.9720    3.9490   -0.0180 ca        1 32D     -0.093000
     15 C15         5.8340    3.2200    0.8170 cp        1 32D     -0.015000
     16 C16         5.3980    2.0000    1.3520 ca        1 32D     -0.097000
     17 C17         7.1630    3.7210    1.1240 cp        1 32D     -0.296600
     18 C18         7.9440    4.4110    0.1650 ca        1 32D      0.443700
     19 N19         9.1750    4.8810    0.4400 nb        1 32D     -0.680500
     20 C20         9.6370    4.6570    1.7010 ca        1 32D      0.646900
     21 N21         8.9790    4.0090    2.7010 nb        1 32D     -0.680500
     22 C22         7.7500    3.5490    2.4010 ca        1 32D      0.443700
     23 C24         4.5830   -0.9530    1.2820 ca        1 32D     -0.059300
     24 C25         5.4650   -0.8510    0.2040 ca        1 32D     -0.202300
     25 C26         6.2460   -1.9760   -0.1360 ca        1 32D      0.409200
     26 N27         6.1960   -3.1470    0.5190 nb        1 32D     -0.613000
     27 C28         5.3360   -3.2350    1.5600 ca        1 32D      0.337600
     28 C29         4.5110   -2.1720    1.9710 ca        1 32D     -0.202300
     29 C30         5.2570   -4.5780    2.3090 c3        1 32D      0.360600
     30 F31         4.9640   -4.3940    3.6430 f         1 32D     -0.238800
     31 F32         4.1920   -5.3320    1.8710 f         1 32D     -0.238800
     32 N34         2.0940    0.2890    5.0410 n4        1 32D     -0.781600
     33 H1         -0.2780   -1.1350   -0.7110 ha        1 32D      0.174000
     34 H2          2.1450   -0.5360   -0.7710 ha        1 32D      0.176000
     35 H6         -1.5560   -1.1270    1.4310 ha        1 32D      0.182000
     36 H341        2.7530   -0.2220    5.6440 hn        1 32D      0.481133
     37 H342        2.0820    1.2790    5.3190 hn        1 32D      0.481133
     38 H12         2.2530    1.8900   -0.0020 ha        1 32D      0.140000
     39 H16         6.0740    1.4160    1.9970 ha        1 32D      0.152000
     40 H13         3.0270    4.0380   -0.9590 ha        1 32D      0.154000
     41 H14         5.3010    4.9120   -0.4400 ha        1 32D      0.155000
     42 H18         7.5700    4.5860   -0.8600 h4        1 32D      0.030100
     43 H22         7.2100    3.0290    3.2130 h4        1 32D      0.030100
     44 H20        10.6520    5.0420    1.9370 h5        1 32D      0.070100
     45 H25         5.5660    0.0790   -0.3760 ha        1 32D      0.168000
     46 H29         3.8280   -2.3260    2.8170 ha        1 32D      0.145000
     47 H26         6.9560   -1.9320   -0.9850 h4        1 32D      0.049100
     48 H30         6.2230   -5.1590    2.1990 h2        1 32D      0.113700
     49 H343        1.1470   -0.1090    5.1440 hn        1 32D      0.481133
@<TRIPOS>BOND
     1    1    2 ar  
     2    1    6 ar  
     3    1   33 1   
     4    2    3 ar  
     5    2   34 1   
     6    3    4 ar  
     7    3   10 1   
     8    4    5 ar  
     9    4    8 1   
    10    5    6 ar  
    11    5    7 1   
    12    6   35 1   
    13    8    9 2   
    14    8   32 1   
    15    9   10 1   
    16   10   11 1   
    17   10   23 1   
    18   11   12 ar  
    19   11   16 ar  
    20   12   13 ar  
    21   12   38 1   
    22   13   14 ar  
    23   13   40 1   
    24   14   15 ar  
    25   14   41 1   
    26   15   16 ar  
    27   15   17 1   
    28   16   39 1   
    29   17   18 ar  
    30   17   22 ar  
    31   18   19 ar  
    32   18   42 1   
    33   19   20 ar  
    34   20   21 ar  
    35   20   44 1   
    36   21   22 ar  
    37   22   43 1   
    38   23   24 ar  
    39   23   28 ar  
    40   24   25 ar  
    41   24   45 1   
    42   25   26 ar  
    43   25   47 1   
    44   26   27 ar  
    45   27   28 ar  
    46   27   29 1   
    47   28   46 1   
    48   29   30 1   
    49   29   31 1   
    50   29   48 1   
    51   32   36 1   
    52   32   37 1   
    53   32   49 1   
@<TRIPOS>SUBSTRUCTURE
     1 32D         1 TEMP              0 ****  ****    0 ROOT
