@<TRIPOS>MOLECULE
32D
   48    42     1     0     0
SMALL
bcc


@<TRIPOS>ATOM
      1 C1         -4.4520    0.6690   -1.6120 c1        1 32D     -0.126500
      2 C2         -3.0260    0.6750   -1.6530 c1        1 32D     -0.122000
      3 C3         -2.3010    0.6690   -0.4730 c1        1 32D     -0.056000
      4 C4         -3.0000    0.6560    0.8180 c1        1 32D     -0.154000
      5 C5         -4.3950    0.6500    0.8550 c1        1 32D      0.134000
      6 C6         -5.1340    0.6560   -0.3460 c1        1 32D     -0.126500
      7 F7         -5.3110    0.4190    1.8130 f         1 32D     -0.100000
      8 C8         -1.8790    0.6480    1.8370 c2        1 32D      0.139000
      9 N9         -0.6900    0.6470    1.3150 n1        1 32D     -0.238000
     10 C10        -0.6810    0.6410   -0.0530 c2        1 32D      0.123000
     11 C11         0.0000   -0.6560   -0.5850 c2        1 32D     -0.042500
     12 C12        -0.0680   -0.9630   -1.9270 c2        1 32D     -0.141500
     13 C13         0.6580   -2.0260   -2.4320 c1        1 32D     -0.103000
     14 C14         1.4590   -2.7890   -1.5870 c1        1 32D     -0.112000
     15 C15         1.5290   -2.4860   -0.2540 c1        1 32D     -0.038000
     16 C16         0.7950   -1.4110    0.2570 c1        1 32D     -0.105000
     17 C17         2.4640   -3.3020    0.6790 c2        1 32D     -0.134000
     18 C18         3.7920   -3.0270    0.7230 c2        1 32D     -0.029000
     19 N19         4.6020   -3.7540    1.5140 n1        1 32D     -0.161000
     20 C20         4.0920   -4.7610    2.2690 c1        1 32D     -0.036000
     21 N21         2.7560   -5.0380    2.2240 n1        1 32D     -0.165000
     22 C22         1.9500   -4.3200    1.4410 c1        1 32D     -0.032000
     23 C24         0.0470    1.9010   -0.5950 c2        1 32D     -0.042500
     24 C25         0.2210    2.0700   -1.9550 c2        1 32D     -0.141500
     25 C26         0.9230    3.1660   -2.4330 c1        1 32D     -0.103000
     26 N27         1.4460    4.0830   -1.5560 n1        1 32D     -0.093000
     27 C28         1.2750    3.9170   -0.2140 c1        1 32D     -0.101000
     28 C29         0.5630    2.8070    0.2720 c1        1 32D     -0.105000
     29 C30         1.9430    4.8980    0.7780 c3        1 32D      0.283000
     30 F31         3.1490    4.4690    1.0760 f         1 32D     -0.161000
     31 F32         2.0310    6.1390    0.2060 f         1 32D     -0.161000
     32 N34        -2.0900    0.0790    3.1270 n3        1 32D     -0.331000
     33 H1         -4.9930    0.6740   -2.4880 ha        1 32D      0.151000
     34 H2         -2.5560    0.6850   -2.5230 ha        1 32D      0.150000
     35 H6         -6.1440    0.6520   -0.3160 ha        1 32D      0.151000
     36 H341       -2.8940    0.0880    3.4870 hn        1 32D      0.221000
     37 H342       -1.3890   -0.2330    3.6000 hn        1 32D      0.221000
     38 H12        -0.6230   -0.4350   -2.5160 ha        1 32D      0.145500
     39 H16         0.8430   -1.1950    1.2060 ha        1 32D      0.158500
     40 H13         0.6080   -2.2420   -3.3810 ha        1 32D      0.152000
     41 H14         1.9650   -3.5310   -1.9410 ha        1 32D      0.137000
     42 H18         4.1510   -2.3210    0.1940 h4        1 32D      0.172000
     43 H22         0.9600   -4.5260    1.4080 ha        1 32D      0.168000
     44 H20         4.6630   -5.2720    2.8250 ha        1 32D      0.194000
     45 H25        -0.1270    1.4080   -2.5740 ha        1 32D      0.145500
     46 H29         0.4360    2.6820    1.2670 ha        1 32D      0.158500
     47 H26         1.0470    3.2860   -3.4020 ha        1 32D      0.152000
     48 H30         1.3840    4.9540    1.6250 h2        1 32D      0.107000
@<TRIPOS>BOND
     1    1    6 1   
     2    1   33 1   
     3    2    3 1   
     4    2   34 1   
     5    3   10 1   
     6    4    5 1   
     7    4    8 1   
     8    5    7 1   
     9    6   35 1   
    10    8    9 1   
    11    8   32 1   
    12   10   11 1   
    13   10   23 1   
    14   11   12 1   
    15   11   16 1   
    16   12   13 1   
    17   12   38 1   
    18   13   40 1   
    19   14   15 1   
    20   14   41 1   
    21   15   17 1   
    22   16   39 1   
    23   17   18 1   
    24   17   22 1   
    25   18   19 1   
    26   18   42 1   
    27   20   21 1   
    28   20   44 1   
    29   22   43 1   
    30   23   24 1   
    31   23   28 1   
    32   24   25 1   
    33   24   45 1   
    34   25   47 1   
    35   26   27 1   
    36   27   29 1   
    37   28   46 1   
    38   29   30 1   
    39   29   31 1   
    40   29   48 1   
    41   32   36 1   
    42   32   37 1   
@<TRIPOS>SUBSTRUCTURE
     1 32D         1 TEMP              0 ****  ****    0 ROOT
