@<TRIPOS>MOLECULE
32E
   68    66     1     0     0
SMALL
bcc


@<TRIPOS>ATOM
      1 C31         0.4440    0.5450   -0.8000 c3        1 32E     -0.292000
      2 C23         5.1360   -1.4850    4.2220 c3        1 32E     -0.195000
      3 C22         5.6840   -0.1600    4.4530 c1        1 32E     -0.168000
      4 C30         1.8180    0.4510   -0.3100 c1        1 32E     -0.017000
      5 C32        -0.6320   -0.2250   -0.1710 c1        1 32E     -0.073000
      6 C34         0.9790   -1.2290    1.3830 c2        1 32E     -0.032000
      7 C24         4.2490   -1.6910    3.0550 c2        1 32E      0.000000
      8 C21         5.3990    0.8750    3.5610 c2        1 32E     -0.298000
      9 C29         2.0170   -0.2290    0.9840 c3        1 32E     -0.058000
     10 C25         4.0140   -0.6530    2.1950 c2        1 32E     -0.112000
     11 C26         4.6040    0.6480    2.4310 c2        1 32E      0.243000
     12 C33        -0.2670   -1.1510    0.8420 c2        1 32E     -0.202000
     13 C3          0.9810    5.3800    5.1050 c2        1 32E      0.049000
     14 C2         -0.2200    5.8860    4.7010 c2        1 32E     -0.262000
     15 C8         -0.9170    5.2830    3.5550 c2        1 32E      0.358000
     16 C5          0.9720    3.6980    3.3580 c2        1 32E      0.397000
     17 C12         2.7310    5.5570    8.2400 c2        1 32E     -0.227000
     18 C11         2.1390    6.7440    8.2520 c2        1 32E     -0.227000
     19 C13         5.2610    2.9530    6.1390 c2        1 32E     -0.068000
     20 C15         3.8770    3.4450    4.2440 c2        1 32E      0.030000
     21 C10         2.8090    3.8120    5.0100 c2        1 32E     -0.217000
     22 C1         -0.8660    7.0320    5.3700 c3        1 32E     -0.144000
     23 C19         5.5990    1.8750    6.8580 c2        1 32E     -0.258000
     24 C20         8.6690    4.4420    4.3920 c1        1 32E     -0.254000
     25 C17         7.4150    2.1350    4.2670 c3        1 32E     -0.057000
     26 C16         5.9440    2.2570    3.8270 c3        1 32E      0.101000
     27 N7         -0.2690    4.2040    2.9340 n         1 32E     -0.364000
     28 N4          1.5990    4.3130    4.4750 n         1 32E     -0.185000
     29 N14         5.1160    3.0580    4.7380 n3        1 32E     -0.207000
     30 O37         2.4730   -3.2790    3.1780 o         1 32E     -0.529500
     31 O38         4.5270   -4.0050    2.6300 o         1 32E     -0.529500
     32 O28         3.3240   -0.8340    1.0010 os        1 32E     -0.150000
     33 F27         4.3590    1.6270    1.5420 f         1 32E     -0.083000
     34 CL         -1.4900   -2.2230    1.3670 cl        1 32E     -0.023000
     35 H1          0.1550    1.6410   -0.7890 hc        1 32E      0.175000
     36 H2          4.5850   -1.8090    5.1560 hc        1 32E      0.180500
     37 H3          6.0000   -2.2160    4.1220 hc        1 32E      0.180500
     38 H4          1.9700    0.6370    1.7360 h1        1 32E      0.182000
     39 H5          0.4550    0.2620   -1.8980 hc        1 32E      0.175000
     40 H6          1.2900   -1.9940    2.1320 ha        1 32E      0.235000
     41 H7          1.5300    5.8000    5.9760 h4        1 32E      0.173000
     42 H8          5.0730    3.9310    6.6340 h4        1 32E      0.116000
     43 H9          1.4220    2.4170    8.2700 ha        1 32E      0.000667
     44 H10         1.7200    2.4050    7.6630 ha        1 32E      0.000667
     45 H11         1.0510    6.8640    8.3420 ha        1 32E      0.114000
     46 H12         2.1740    4.6120    8.3210 ha        1 32E      0.114000
     47 H13         3.8210    5.4360    8.1480 ha        1 32E      0.114000
     48 H14         2.8050    3.7560    6.1130 h4        1 32E      0.150000
     49 H15         3.8070    3.4470    3.1340 h4        1 32E      0.167000
     50 H16         2.6980    7.6860    8.1720 ha        1 32E      0.114000
     51 H17        -1.9600    6.8330    5.4990 hc        1 32E      0.083000
     52 H18        -0.4090    7.2230    6.3720 hc        1 32E      0.083000
     53 H19        -0.7570    7.9540    4.7450 hc        1 32E      0.083000
     54 H20         5.7790    0.8770    6.4170 ha        1 32E      0.144000
     55 H21         5.6460    4.0070    8.8690 ha        1 32E      0.000667
     56 H22         5.6390    4.4320    9.3970 ha        1 32E      0.000667
     57 H23         9.1810    5.3670    4.4420 ha        1 32E      0.212000
     58 H24         5.9960    5.8950    7.5470 ha        1 32E      0.000667
     59 H25         5.8580    6.3210    7.0380 ha        1 32E      0.000667
     60 H26         7.4760    1.6010    5.2570 hc        1 32E      0.127000
     61 H27         7.9260    1.4780    3.5070 hc        1 32E      0.127000
     62 H28         5.9420    2.8370    2.8490 h1        1 32E      0.095000
     63 H29         5.7300    1.9560    7.9450 ha        1 32E      0.144000
     64 H30        -0.7060    3.7410    2.1650 hn        1 32E      0.264000
     65 C18         8.0880    3.3970    4.3330 c1        1 32E     -0.136000
     66 O9         -2.0180    5.6550    3.1100 o         1 32E     -0.353000
     67 C36         3.6950   -3.1110    2.9210 c2        1 32E      0.362000
     68 O6          1.4940    2.7440    2.7400 o         1 32E     -0.377000
@<TRIPOS>BOND
     1    1    4 1   
     2    1    5 1   
     3    1   35 1   
     4    1   39 1   
     5    2    3 1   
     6    2    7 1   
     7    2   36 1   
     8    2   37 1   
     9    3    8 1   
    10    4    9 1   
    11    5   12 1   
    12    6    9 1   
    13    6   12 1   
    14    6   40 1   
    15    7   10 1   
    16    7   67 1   
    17    8   11 1   
    18    8   26 1   
    19    9   32 1   
    20    9   38 1   
    21   10   11 1   
    22   10   32 1   
    23   11   33 1   
    24   12   34 1   
    25   13   14 1   
    26   13   28 1   
    27   13   41 1   
    28   14   15 1   
    29   14   22 1   
    30   15   27 1   
    31   15   66 1   
    32   16   27 1   
    33   16   28 1   
    34   16   68 1   
    35   17   18 1   
    36   17   46 1   
    37   17   47 1   
    38   18   45 1   
    39   18   50 1   
    40   19   23 1   
    41   19   29 1   
    42   19   42 1   
    43   20   21 1   
    44   20   29 1   
    45   20   49 1   
    46   21   28 1   
    47   21   48 1   
    48   22   51 1   
    49   22   52 1   
    50   22   53 1   
    51   23   54 1   
    52   23   63 1   
    53   24   57 1   
    54   24   65 1   
    55   25   26 1   
    56   25   60 1   
    57   25   61 1   
    58   25   65 1   
    59   26   29 1   
    60   26   62 1   
    61   27   64 1   
    62   30   67 1   
    63   31   67 1   
    64   43   44 1   
    65   55   56 1   
    66   58   59 1   
@<TRIPOS>SUBSTRUCTURE
     1 32E         1 TEMP              0 ****  ****    0 ROOT
