@<TRIPOS>MOLECULE
32E
   68    68     1     0     0
SMALL
bcc


@<TRIPOS>ATOM
      1 C31         0.3760   -2.8460    2.4840 c3        1 32E     -0.204000
      2 C23         5.1040   -0.7590    5.7320 ca        1 32E     -0.127000
      3 C22         5.0800    0.6290    5.7000 ca        1 32E     -0.104000
      4 C30         1.7810   -2.5870    2.8610 c2        1 32E     -0.117000
      5 C32        -0.1630   -2.1740    1.3080 c1        1 32E     -0.105000
      6 C34         1.9980   -1.0740    0.9500 c2        1 32E      0.011000
      7 C24         4.6590   -1.5220    4.6420 ca        1 32E     -0.048000
      8 C21         4.6140    1.3120    4.5710 ca        1 32E     -0.177000
      9 C29         2.5320   -1.7380    2.1110 c2        1 32E     -0.035000
     10 C25         4.2100   -0.8500    3.5010 ca        1 32E      0.009000
     11 C26         4.1870    0.5680    3.4550 ca        1 32E      0.070000
     12 C33         0.6960   -1.3130    0.5860 c2        1 32E     -0.179000
     13 C3          2.4170    6.0610    4.6130 c2        1 32E      0.044000
     14 C2          2.4870    7.4220    4.5870 c2        1 32E     -0.236000
     15 C8          1.4460    8.2260    5.2480 c2        1 32E      0.358000
     16 C5          0.3310    6.1060    5.8610 c2        1 32E      0.396000
     17 C12         0.6530   -0.2600    5.5970 c2        1 32E     -0.229000
     18 C11        -0.2830    0.5640    5.1460 c2        1 32E     -0.229000
     19 C13         4.1940    3.9650    6.6510 c1        1 32E     -0.169000
     20 C15         2.3210    3.0810    5.3880 c2        1 32E     -0.138000
     21 C10         1.3100    3.9670    5.2580 c2        1 32E     -0.054000
     22 C1          3.5790    8.1460    3.9070 c3        1 32E     -0.154000
     23 C19         7.5520    5.3030    4.6220 c3        1 32E     -0.209000
     24 C20         5.8600    5.1050    2.8170 c3        1 32E     -0.209000
     25 C17         6.0240    3.3520    4.6190 c3        1 32E     -0.141000
     26 C16         4.5860    2.8190    4.5450 c3        1 32E      0.074000
     27 N7          0.3990    7.5070    5.8510 n         1 32E     -0.365000
     28 N4          1.3940    5.3750    5.2530 n         1 32E     -0.218000
     29 N14         3.7010    3.3660    5.5990 n3        1 32E     -0.118000
     30 O37         3.5980   -3.6030    5.1180 o         1 32E     -0.542000
     31 O38         5.7790   -3.6300    4.6140 o         1 32E     -0.542000
     32 O28         3.9000   -1.5410    2.3280 os        1 32E     -0.149000
     33 F27         3.7520    1.1960    2.3340 f         1 32E     -0.119000
     34 CL          0.0600   -0.5340   -0.7960 cl        1 32E     -0.043000
     35 H1          0.2410   -3.9590    2.3180 hc        1 32E      0.168500
     36 H2          5.4780   -1.2880    6.6220 ha        1 32E      0.150000
     37 H3          5.4280    1.2100    6.5680 ha        1 32E      0.137000
     38 H4          2.2060   -3.0990    3.7530 ha        1 32E      0.230000
     39 H5         -0.2980   -2.5870    3.3560 hc        1 32E      0.168500
     40 H6          2.6670   -0.3910    0.4010 ha        1 32E      0.157000
     41 H7          3.1820    5.4360    4.1080 h4        1 32E      0.183000
     42 H8          3.4590    4.3260    7.4020 ha        1 32E      0.044000
     43 H9         -0.7540    0.4430    4.1610 ha        1 32E      0.114750
     44 H10        -1.7560    3.3570    6.5630 ha        1 32E      0.002000
     45 H11        -0.6560    1.4200    5.7270 ha        1 32E      0.114750
     46 H12         1.1240   -0.1440    6.5830 ha        1 32E      0.114750
     47 H13         1.0250   -1.1180    5.0160 ha        1 32E      0.114750
     48 H14         0.2620    3.5960    5.1980 h4        1 32E      0.184000
     49 H15         2.0810    1.9960    5.3130 h4        1 32E      0.187000
     50 H16        -1.9510    3.4020    5.9160 ha        1 32E      0.002000
     51 H17         4.4100    7.4500    3.6280 hc        1 32E      0.091000
     52 H18         3.9820    8.9450    4.5780 hc        1 32E      0.091000
     53 H19         3.1930    8.6380    2.9780 hc        1 32E      0.091000
     54 H20         7.7530    5.1550    5.7100 hc        1 32E      0.070833
     55 H21         5.4220    5.4090    4.9110 hc        1 32E      0.094000
     56 H22         7.6620    6.3880    4.3850 hc        1 32E      0.070833
     57 H23         4.7920    4.8900    2.5750 hc        1 32E      0.070833
     58 H24         6.0620    6.1780    2.5790 hc        1 32E      0.070833
     59 H25         8.3130    4.7330    4.0380 hc        1 32E      0.070833
     60 H26         6.4270    3.1790    5.6530 hc        1 32E      0.108000
     61 H27         6.6370    2.7480    3.8990 hc        1 32E      0.108000
     62 H28         4.1330    3.1540    3.5610 h1        1 32E      0.099000
     63 H29         6.5040    4.4710    2.1600 hc        1 32E      0.070833
     64 H30        -0.3430    7.9970    6.3030 hn        1 32E      0.263000
     65 C18         6.1530    4.8280    4.2780 c3        1 32E     -0.109000
     66 O9          1.4210    9.4670    5.3060 o         1 32E     -0.344000
     67 C36         4.6830   -3.0450    4.7850 c2        1 32E      0.372000
     68 O6         -0.6390    5.5220    6.3880 o         1 32E     -0.359000
@<TRIPOS>BOND
     1    1    4 1   
     2    1    5 1   
     3    1   35 1   
     4    1   39 1   
     5    2    3 1   
     6    2    7 1   
     7    2   36 1   
     8    3    8 1   
     9    3   37 1   
    10    4    9 1   
    11    4   38 1   
    12    5   12 1   
    13    6    9 1   
    14    6   12 1   
    15    6   40 1   
    16    7   10 1   
    17    7   67 1   
    18    8   11 1   
    19    8   26 1   
    20    9   32 1   
    21   10   11 1   
    22   10   32 1   
    23   11   33 1   
    24   12   34 1   
    25   13   14 1   
    26   13   28 1   
    27   13   41 1   
    28   14   15 1   
    29   14   22 1   
    30   15   27 1   
    31   15   66 1   
    32   16   27 1   
    33   16   28 1   
    34   16   68 1   
    35   17   18 1   
    36   17   46 1   
    37   17   47 1   
    38   18   43 1   
    39   18   45 1   
    40   19   29 1   
    41   19   42 1   
    42   20   21 1   
    43   20   29 1   
    44   20   49 1   
    45   21   28 1   
    46   21   48 1   
    47   22   51 1   
    48   22   52 1   
    49   22   53 1   
    50   23   54 1   
    51   23   56 1   
    52   23   59 1   
    53   23   65 1   
    54   24   57 1   
    55   24   58 1   
    56   24   63 1   
    57   24   65 1   
    58   25   26 1   
    59   25   60 1   
    60   25   61 1   
    61   25   65 1   
    62   26   29 1   
    63   26   62 1   
    64   27   64 1   
    65   30   67 1   
    66   31   67 1   
    67   44   50 1   
    68   55   65 1   
@<TRIPOS>SUBSTRUCTURE
     1 32E         1 TEMP              0 ****  ****    0 ROOT
