@<TRIPOS>MOLECULE
32E
   68    68     1     0     0
SMALL
bcc


@<TRIPOS>ATOM
      1 C31         1.1110   -0.4740   -1.3190 c3        1 32E     -0.306000
      2 C23         4.2640   -0.9190    4.9260 ca        1 32E     -0.113000
      3 C22         4.4860    0.4050    5.3110 ca        1 32E     -0.075000
      4 C30         2.2930   -0.0380   -0.5800 c1        1 32E      0.001000
      5 C32         0.0550   -1.2550   -0.6710 c1        1 32E     -0.045000
      6 C34         1.3400   -1.2720    1.4170 c2        1 32E     -0.067000
      7 C24         3.9460   -1.2130    3.6000 ca        1 32E     -0.080000
      8 C21         4.3520    1.4600    4.4050 ca        1 32E     -0.152000
      9 C29         2.2790   -0.2330    0.8830 c3        1 32E     -0.043000
     10 C25         3.8210   -0.1740    2.6730 ca        1 32E     -0.045000
     11 C26         4.0030    1.1720    3.0670 ca        1 32E      0.055000
     12 C33         0.2980   -1.7030    0.6640 c2        1 32E     -0.182000
     13 C3          2.3030    5.6380    5.1860 c2        1 32E      0.038000
     14 C2          2.0830    6.8290    4.5590 c2        1 32E     -0.238000
     15 C8          0.7520    7.1440    4.0180 c2        1 32E      0.358000
     16 C5         -0.0020    4.9480    4.8660 c2        1 32E      0.394000
     17 C12         1.8310   -0.0750    8.4360 c2        1 32E     -0.239500
     18 C11         0.7320    0.3610    7.8350 c2        1 32E     -0.239500
     19 C13         4.7190    3.7710    7.0770 c1        1 32E     -0.175000
     20 C15         2.6580    2.7840    6.3020 c2        1 32E     -0.158000
     21 C10         1.5180    3.4280    5.9760 c2        1 32E     -0.049000
     22 C1          3.1480    7.8400    4.4040 c3        1 32E     -0.159000
     23 C19         7.9340    4.8460    4.8170 c3        1 32E     -0.207000
     24 C20         5.9490    5.3480    3.4160 c3        1 32E     -0.207000
     25 C17         6.0930    3.1920    4.7110 c3        1 32E     -0.135000
     26 C16         4.5890    2.8950    4.8130 c3        1 32E      0.072000
     27 N7         -0.2380    6.1650    4.2140 ns        1 32E     -0.364000
     28 N4          1.3170    4.6740    5.3520 n         1 32E     -0.206000
     29 N14         4.0090    3.2080    6.1370 n3        1 32E     -0.117000
     30 O37         4.3190   -3.2230    5.5510 o         1 32E     -0.551000
     31 O38         4.3680   -1.6870    7.1800 o         1 32E     -0.551000
     32 O28         3.6200   -0.4870    1.3300 os        1 32E     -0.163000
     33 F27         3.8300    2.1680    2.1630 f         1 32E     -0.117000
     34 Cl         -0.8020   -2.8410    1.2940 cl        1 32E     -0.005000
     35 H1          0.6400    0.4440   -1.7890 hc        1 32E      0.186000
     36 H2          3.8120   -2.2660    3.2980 ha        1 32E      0.175000
     37 H3          4.7640    0.5890    6.3640 ha        1 32E      0.169000
     38 H4          1.9390    0.7840    1.2810 h1        1 32E      0.160000
     39 H5          1.4750   -1.0850   -2.2050 hc        1 32E      0.186000
     40 H6          1.5500   -1.6350    2.4390 ha        1 32E      0.178000
     41 H7          3.3040    5.4080    5.6010 h4        1 32E      0.187000
     42 H8          4.1990    3.9440    8.0440 ha        1 32E      0.043000
     43 H9          0.5010    0.1330    6.7860 ha        1 32E      0.119250
     44 H10        -1.2850    1.7180    6.4740 ha        1 32E      0.001000
     45 H11        -0.0320    0.9650    8.3440 ha        1 32E      0.119250
     46 H12         2.6010   -0.6910    7.9320 ha        1 32E      0.119250
     47 H13         2.0480    0.1480    9.4910 ha        1 32E      0.119250
     48 H14         2.5570    1.7830    6.7860 h4        1 32E      0.197000
     49 H15         0.5540    2.9100    6.2060 h4        1 32E      0.196000
     50 H16        -1.6600    2.1200    6.0780 ha        1 32E      0.001000
     51 H17         3.2040    8.4870    5.3160 hc        1 32E      0.092000
     52 H18         4.1440    7.3500    4.2550 hc        1 32E      0.092000
     53 H19         2.9330    8.4960    3.5240 hc        1 32E      0.092000
     54 H20         8.2890    4.4020    5.7770 hc        1 32E      0.069167
     55 H21         8.2020    5.9290    4.8050 hc        1 32E      0.069167
     56 H22         5.9430    5.1670    5.5710 hc        1 32E      0.111000
     57 H23         4.8340    5.3400    3.3600 hc        1 32E      0.069167
     58 H24         6.3500    4.8260    2.5130 hc        1 32E      0.069167
     59 H25         8.4640    4.3400    3.9740 hc        1 32E      0.069167
     60 H26         6.6220    2.7110    5.5760 hc        1 32E      0.105000
     61 H27         6.4590    2.7090    3.7660 hc        1 32E      0.105000
     62 H28         4.0400    3.5640    4.0790 h1        1 32E      0.096000
     63 H29         6.2900    6.4110    3.3900 hc        1 32E      0.069167
     64 H30        -1.1610    6.3190    3.8700 hn        1 32E      0.264000
     65 C18         6.4330    4.6740    4.6830 c3        1 32E     -0.112000
     66 O9          0.4420    8.1860    3.4160 o         1 32E     -0.346000
     67 C36         4.3300   -2.0350    5.9660 c2        1 32E      0.362000
     68 O6         -0.9360    4.1310    5.0170 o         1 32E     -0.359000
@<TRIPOS>BOND
     1    1    4 1   
     2    1    5 1   
     3    1   35 1   
     4    1   39 1   
     5    2    3 1   
     6    2    7 1   
     7    2   67 1   
     8    3    8 1   
     9    3   37 1   
    10    4    9 1   
    11    5   12 1   
    12    6    9 1   
    13    6   12 1   
    14    6   40 1   
    15    7   10 1   
    16    7   36 1   
    17    8   11 1   
    18    8   26 1   
    19    9   32 1   
    20    9   38 1   
    21   10   11 1   
    22   10   32 1   
    23   11   33 1   
    24   12   34 1   
    25   13   14 1   
    26   13   28 1   
    27   13   41 1   
    28   14   15 1   
    29   14   22 1   
    30   15   27 1   
    31   15   66 1   
    32   16   27 1   
    33   16   28 1   
    34   16   68 1   
    35   17   18 1   
    36   17   46 1   
    37   17   47 1   
    38   18   43 1   
    39   18   45 1   
    40   19   29 1   
    41   19   42 1   
    42   20   21 1   
    43   20   29 1   
    44   20   48 1   
    45   21   28 1   
    46   21   49 1   
    47   22   51 1   
    48   22   52 1   
    49   22   53 1   
    50   23   54 1   
    51   23   55 1   
    52   23   59 1   
    53   23   65 1   
    54   24   57 1   
    55   24   58 1   
    56   24   63 1   
    57   24   65 1   
    58   25   26 1   
    59   25   60 1   
    60   25   61 1   
    61   25   65 1   
    62   26   29 1   
    63   26   62 1   
    64   27   64 1   
    65   30   67 1   
    66   31   67 1   
    67   44   50 1   
    68   56   65 1   
@<TRIPOS>SUBSTRUCTURE
     1 32E         1 TEMP              0 ****  ****    0 ROOT
