@<TRIPOS>MOLECULE
32F
   33    35     1     0     0
SMALL
bcc


@<TRIPOS>ATOM
      1 O22         0.8130   -1.0880    0.3040 o         1 32F     -0.813300
      2 C20         1.3360    0.0430    0.1410 c         1 32F      0.928600
      3 O21         1.2820    1.0140    0.9390 o         1 32F     -0.813300
      4 C18         2.0590    0.3010   -1.2180 c3        1 32F     -0.017600
      5 C8          6.9570   -0.0920   -5.4510 cc        1 32F      0.583500
      6 N11         6.4300   -0.4100   -6.7140 n         1 32F     -0.490400
      7 C10         7.2420   -0.4350   -7.8560 c         1 32F      0.707100
      8 O19         6.7310   -0.7160   -8.9580 o         1 32F     -0.644500
      9 C12         8.6650   -0.1200   -7.6430 ca        1 32F     -0.203600
     10 C17         9.5610   -0.1240   -8.7210 ca        1 32F     -0.058000
     11 C16        10.8980    0.1720   -8.5080 ca        1 32F     -0.171000
     12 C15        11.3500    0.4750   -7.2150 ca        1 32F     -0.098000
     13 C14        10.4830    0.4840   -6.1370 ca        1 32F     -0.132000
     14 C13         9.1080    0.1830   -6.3270 ca        1 32F      0.201400
     15 N9          8.2350    0.1980   -5.2380 nd        1 32F     -0.638100
     16 C3          6.3750   -0.6620   -3.0910 ca        1 32F     -0.054000
     17 C2          5.4850   -0.6920   -2.0320 ca        1 32F     -0.213000
     18 C1          4.1880   -0.1460   -2.1840 ca        1 32F      0.196100
     19 C4          3.8170    0.4330   -3.4130 ca        1 32F     -0.213000
     20 O2          3.3870   -0.2290   -1.0890 os        1 32F     -0.273900
     21 C5          5.9970   -0.1020   -4.3230 ca        1 32F     -0.244900
     22 C6          4.7190    0.4510   -4.4680 ca        1 32F     -0.054000
     23 H181        2.1210    1.3990   -1.4260 h1        1 32F      0.025200
     24 H182        1.5260   -0.2320   -2.0440 h1        1 32F      0.025200
     25 H11         5.4630   -0.6340   -6.7980 hn        1 32F      0.341500
     26 H17         9.1810   -0.3650   -9.7260 ha        1 32F      0.152000
     27 H16        11.6060    0.1720   -9.3480 ha        1 32F      0.130000
     28 H15        12.4150    0.7090   -7.0580 ha        1 32F      0.128000
     29 H14        10.8490    0.7230   -5.1270 ha        1 32F      0.151000
     30 H6          4.4190    0.9260   -5.4150 ha        1 32F      0.130500
     31 H4          2.8180    0.8750   -3.5370 ha        1 32F      0.152500
     32 H2          5.7630   -1.1330   -1.0640 ha        1 32F      0.152500
     33 H3          7.3850   -1.0820   -2.9660 ha        1 32F      0.130500
@<TRIPOS>BOND
     1    1    2 1   
     2    2    3 1   
     3    2    4 1   
     4    4   20 1   
     5    4   23 1   
     6    4   24 1   
     7    5    6 1   
     8    5   15 2   
     9    5   21 1   
    10    6    7 1   
    11    6   25 1   
    12    7    8 2   
    13    7    9 1   
    14    9   10 ar  
    15    9   14 ar  
    16   10   11 ar  
    17   10   26 1   
    18   11   12 ar  
    19   11   27 1   
    20   12   13 ar  
    21   12   28 1   
    22   13   14 ar  
    23   13   29 1   
    24   14   15 1   
    25   16   17 ar  
    26   16   21 ar  
    27   16   33 1   
    28   17   18 ar  
    29   17   32 1   
    30   18   19 ar  
    31   18   20 1   
    32   19   22 ar  
    33   19   31 1   
    34   21   22 ar  
    35   22   30 1   
@<TRIPOS>SUBSTRUCTURE
     1 32F         1 TEMP              0 ****  ****    0 ROOT
