@<TRIPOS>MOLECULE
32F
   33    30     1     0     0
SMALL
bcc


@<TRIPOS>ATOM
      1 O22        -2.7130    1.7720    6.8450 o         1 32F     -0.548000
      2 C20        -1.6890    2.2760    6.2870 c2        1 32F      0.348000
      3 O21        -0.7740    2.7730    6.9870 o         1 32F     -0.548000
      4 C18        -1.5470    2.2220    4.8330 c3        1 32F     -0.118000
      5 C8          0.0510   -0.2850   -0.9450 c1        1 32F      0.205000
      6 N11        -1.0910   -0.2530   -1.7980 n2        1 32F     -0.330000
      7 C10        -0.9940   -0.7290   -3.1200 c2        1 32F      0.344000
      8 O19        -1.9460   -0.6490   -3.8640 o         1 32F     -0.369000
      9 C12         0.2970   -1.2690   -3.6220 c2        1 32F     -0.183000
     10 C17         0.4050   -1.7200   -4.9540 c1        1 32F     -0.058000
     11 C16         1.6070   -2.1960   -5.4220 c1        1 32F     -0.134500
     12 C15         2.7230   -2.2330   -4.5770 c1        1 32F     -0.134500
     13 C14         2.6160   -1.7910   -3.2720 c1        1 32F     -0.132000
     14 C13         1.3910   -1.3050   -2.7940 c2        1 32F      0.062000
     15 N9          1.2930   -0.7960   -1.4320 n2        1 32F     -0.211000
     16 C3         -0.4420   -0.7090    1.5320 c1        1 32F     -0.042000
     17 C2         -0.5550   -0.2750    2.8400 c1        1 32F     -0.193000
     18 C1         -0.2970    1.0570    3.1550 c1        1 32F      0.151000
     19 C4          0.0750    1.9540    2.1500 c1        1 32F     -0.233000
     20 O2         -0.3450    1.4840    4.4940 os        1 32F     -0.157000
     21 C5         -0.0660    0.1960    0.5200 c2        1 32F     -0.161000
     22 C6          0.1890    1.5170    0.8350 c2        1 32F     -0.066000
     23 H181       -2.3240    1.7750    4.4480 h1        1 32F      0.064500
     24 H182       -1.4840    3.1410    4.4730 h1        1 32F      0.064500
     25 H11        -1.8960    0.1110   -1.4880 hn        1 32F      0.255000
     26 H17        -0.3430   -1.6220   -5.5580 ha        1 32F      0.152000
     27 H16         1.6810   -2.5030   -6.3280 ha        1 32F      0.129000
     28 H15         3.5820   -2.5730   -4.9110 ha        1 32F      0.129000
     29 H14         3.3860   -1.8170   -2.6870 ha        1 32F      0.151000
     30 H6          0.4470    2.1400    0.1390 ha        1 32F      0.121000
     31 H4          0.2920    2.8760    2.3760 ha        1 32F      0.150000
     32 H2         -0.9000   -0.9050    3.5530 ha        1 32F      0.155000
     33 H3         -0.6280   -1.6680    1.3040 ha        1 32F      0.140000
@<TRIPOS>BOND
     1    1    2 1   
     2    2    3 1   
     3    2    4 1   
     4    4   20 1   
     5    4   23 1   
     6    4   24 1   
     7    5   15 1   
     8    5   21 1   
     9    6    7 1   
    10    6   25 1   
    11    7    8 1   
    12    7    9 1   
    13    9   10 1   
    14    9   14 1   
    15   10   26 1   
    16   11   12 1   
    17   11   27 1   
    18   12   28 1   
    19   13   14 1   
    20   13   29 1   
    21   14   15 1   
    22   16   21 1   
    23   16   33 1   
    24   17   18 1   
    25   17   32 1   
    26   18   20 1   
    27   19   22 1   
    28   19   31 1   
    29   21   22 1   
    30   22   30 1   
@<TRIPOS>SUBSTRUCTURE
     1 32F         1 TEMP              0 ****  ****    0 ROOT
