@<TRIPOS>MOLECULE
32F
   33    35     1     0     0
SMALL
bcc


@<TRIPOS>ATOM
      1 O22         0.8010   -1.0750    0.2970 o         1 32F     -0.812800
      2 C20         1.3440    0.0490    0.1500 c         1 32F      0.928600
      3 O21         1.3100    1.0090    0.9620 o         1 32F     -0.812800
      4 C18         2.0680    0.3140   -1.2080 c3        1 32F     -0.017600
      5 C8          6.9540   -0.0910   -5.4530 cc        1 32F      0.583500
      6 N11         6.4220   -0.3880   -6.7190 ns        1 32F     -0.490400
      7 C10         7.2310   -0.4090   -7.8620 c         1 32F      0.707100
      8 O19         6.7160   -0.6710   -8.9670 o         1 32F     -0.644500
      9 C12         8.6590   -0.1140   -7.6480 ca        1 32F     -0.203600
     10 C17         9.5530   -0.1160   -8.7270 ca        1 32F     -0.058000
     11 C16        10.8940    0.1610   -8.5130 ca        1 32F     -0.171000
     12 C15        11.3520    0.4430   -7.2170 ca        1 32F     -0.098000
     13 C14        10.4870    0.4500   -6.1380 ca        1 32F     -0.132000
     14 C13         9.1070    0.1690   -6.3300 ca        1 32F      0.201400
     15 N9          8.2360    0.1810   -5.2390 nd        1 32F     -0.638100
     16 C3          6.3690   -0.6810   -3.0990 ca        1 32F     -0.054000
     17 C2          5.4800   -0.7130   -2.0390 ca        1 32F     -0.213000
     18 C1          4.1900   -0.1490   -2.1820 ca        1 32F      0.196100
     19 C4          3.8240    0.4490   -3.4040 ca        1 32F     -0.213000
     20 O2          3.3890   -0.2350   -1.0870 os        1 32F     -0.273900
     21 C5          5.9970   -0.1020   -4.3240 ca        1 32F     -0.244900
     22 C6          4.7250    0.4690   -4.4600 ca        1 32F     -0.054000
     23 H181        2.1440    1.4130   -1.4030 h1        1 32F      0.025200
     24 H182        1.5270   -0.2030   -2.0390 h1        1 32F      0.025200
     25 H11         5.4520   -0.5990   -6.8040 hn        1 32F      0.341500
     26 H17         9.1680   -0.3410   -9.7350 ha        1 32F      0.152000
     27 H16        11.6010    0.1620   -9.3550 ha        1 32F      0.130000
     28 H15        12.4190    0.6620   -7.0590 ha        1 32F      0.128000
     29 H14        10.8570    0.6730   -5.1260 ha        1 32F      0.151000
     30 H6          4.4290    0.9580   -5.4010 ha        1 32F      0.130500
     31 H4          2.8300    0.9050   -3.5210 ha        1 32F      0.152500
     32 H2          5.7540   -1.1680   -1.0760 ha        1 32F      0.152500
     33 H3          7.3740   -1.1150   -2.9810 ha        1 32F      0.130500
@<TRIPOS>BOND
     1    1    2 1   
     2    2    3 1   
     3    2    4 1   
     4    4   20 1   
     5    4   23 1   
     6    4   24 1   
     7    5    6 1   
     8    5   15 2   
     9    5   21 1   
    10    6    7 1   
    11    6   25 1   
    12    7    8 2   
    13    7    9 1   
    14    9   10 ar  
    15    9   14 ar  
    16   10   11 ar  
    17   10   26 1   
    18   11   12 ar  
    19   11   27 1   
    20   12   13 ar  
    21   12   28 1   
    22   13   14 ar  
    23   13   29 1   
    24   14   15 1   
    25   16   17 ar  
    26   16   21 ar  
    27   16   33 1   
    28   17   18 ar  
    29   17   32 1   
    30   18   19 ar  
    31   18   20 1   
    32   19   22 ar  
    33   19   31 1   
    34   21   22 ar  
    35   22   30 1   
@<TRIPOS>SUBSTRUCTURE
     1 32F         1 TEMP              0 ****  ****    0 ROOT
