@<TRIPOS>MOLECULE
32F
   33    35     1     0     0
SMALL
bcc


@<TRIPOS>ATOM
      1 O22        -6.9930   -0.2550    1.0790 o         1 32F     -0.813300
      2 C20        -6.5030    0.0070   -0.0490 c         1 32F      0.928600
      3 O21        -7.0970    0.5520   -1.0140 o         1 32F     -0.813300
      4 C18        -5.0350   -0.4570   -0.3090 c3        1 32F     -0.017600
      5 C8          1.4260   -0.0680    0.1010 cc        1 32F      0.583500
      6 N11         1.9310   -1.3430    0.4060 n         1 32F     -0.490400
      7 C10         3.3090   -1.5930    0.4300 c         1 32F      0.707100
      8 O19         3.7130   -2.7420    0.6990 o         1 32F     -0.644500
      9 C12         4.1790   -0.4430    0.1300 ca        1 32F     -0.203600
     10 C17         5.5730   -0.5880    0.1350 ca        1 32F     -0.058000
     11 C16         6.3820    0.5010   -0.1470 ca        1 32F     -0.171000
     12 C15         5.8020    1.7460   -0.4360 ca        1 32F     -0.098000
     13 C14         4.4290    1.9110   -0.4460 ca        1 32F     -0.132000
     14 C13         3.5770    0.8110   -0.1600 ca        1 32F      0.201400
     15 N9          2.1920    0.9800   -0.1750 nd        1 32F     -0.638100
     16 C3         -0.6400    1.2070    0.6820 ca        1 32F     -0.054000
     17 C2         -2.0170    1.3430    0.7110 ca        1 32F     -0.213000
     18 C1         -2.8380    0.3340    0.1510 ca        1 32F      0.196100
     19 C4         -2.2440   -0.7980   -0.4400 ca        1 32F     -0.213000
     20 O2         -4.1760    0.5570    0.2350 os        1 32F     -0.273900
     21 C5         -0.0490    0.0690    0.1100 ca        1 32F     -0.244900
     22 C6         -0.8610   -0.9220   -0.4560 ca        1 32F     -0.054000
     23 H181       -4.8400   -1.4270    0.2130 h1        1 32F      0.025200
     24 H182       -4.8430   -0.5500   -1.4070 h1        1 32F      0.025200
     25 H11         1.2980   -2.0820    0.6200 hn        1 32F      0.341500
     26 H17         6.0030   -1.5760    0.3650 ha        1 32F      0.152000
     27 H16         7.4750    0.3950   -0.1460 ha        1 32F      0.130000
     28 H15         6.4550    2.6040   -0.6590 ha        1 32F      0.128000
     29 H14         3.9850    2.8920   -0.6750 ha        1 32F      0.151000
     30 H6         -0.4130   -1.8040   -0.9410 ha        1 32F      0.130500
     31 H4         -2.8710   -1.5790   -0.8910 ha        1 32F      0.152500
     32 H2         -2.4960    2.2240    1.1610 ha        1 32F      0.152500
     33 H3         -0.0060    1.9970    1.1120 ha        1 32F      0.130500
@<TRIPOS>BOND
     1    1    2 1   
     2    2    3 1   
     3    2    4 1   
     4    4   20 1   
     5    4   23 1   
     6    4   24 1   
     7    5    6 1   
     8    5   15 2   
     9    5   21 1   
    10    6    7 1   
    11    6   25 1   
    12    7    8 2   
    13    7    9 1   
    14    9   10 ar  
    15    9   14 ar  
    16   10   11 ar  
    17   10   26 1   
    18   11   12 ar  
    19   11   27 1   
    20   12   13 ar  
    21   12   28 1   
    22   13   14 ar  
    23   13   29 1   
    24   14   15 1   
    25   16   17 ar  
    26   16   21 ar  
    27   16   33 1   
    28   17   18 ar  
    29   17   32 1   
    30   18   19 ar  
    31   18   20 1   
    32   19   22 ar  
    33   19   31 1   
    34   21   22 ar  
    35   22   30 1   
@<TRIPOS>SUBSTRUCTURE
     1 32F         1 TEMP              0 ****  ****    0 ROOT
