@<TRIPOS>MOLECULE
32F
   33    35     1     0     0
SMALL
bcc


@<TRIPOS>ATOM
      1 O22         0.8010   -1.0870    0.2950 o         1 32F     -0.812800
      2 C20         1.3410    0.0390    0.1470 c         1 32F      0.928600
      3 O21         1.3040    0.9990    0.9590 o         1 32F     -0.812800
      4 C18         2.0650    0.3040   -1.2110 c3        1 32F     -0.017600
      5 C8          6.9550   -0.0890   -5.4530 cc        1 32F      0.583500
      6 N11         6.4240   -0.3880   -6.7180 n         1 32F     -0.490400
      7 C10         7.2340   -0.4080   -7.8610 c         1 32F      0.707100
      8 O19         6.7200   -0.6710   -8.9660 o         1 32F     -0.644500
      9 C12         8.6610   -0.1090   -7.6460 ca        1 32F     -0.203600
     10 C17         9.5560   -0.1100   -8.7250 ca        1 32F     -0.058000
     11 C16        10.8960    0.1710   -8.5110 ca        1 32F     -0.171000
     12 C15        11.3520    0.4540   -7.2150 ca        1 32F     -0.098000
     13 C14        10.4860    0.4600   -6.1360 ca        1 32F     -0.132000
     14 C13         9.1080    0.1750   -6.3280 ca        1 32F      0.201400
     15 N9          8.2360    0.1860   -5.2380 nd        1 32F     -0.638100
     16 C3          6.3700   -0.6810   -3.0990 ca        1 32F     -0.054000
     17 C2          5.4800   -0.7140   -2.0390 ca        1 32F     -0.213000
     18 C1          4.1890   -0.1530   -2.1830 ca        1 32F      0.196100
     19 C4          3.8220    0.4440   -3.4060 ca        1 32F     -0.213000
     20 O2          3.3870   -0.2410   -1.0890 os        1 32F     -0.273900
     21 C5          5.9970   -0.1030   -4.3240 ca        1 32F     -0.244900
     22 C6          4.7240    0.4650   -4.4610 ca        1 32F     -0.054000
     23 H181        1.5260   -0.2140   -2.0420 h1        1 32F      0.025200
     24 H182        2.1380    1.4030   -1.4070 h1        1 32F      0.025200
     25 H11         5.4550   -0.6010   -6.8040 hn        1 32F      0.341500
     26 H17         9.1720   -0.3360   -9.7330 ha        1 32F      0.152000
     27 H16        11.6030    0.1730   -9.3510 ha        1 32F      0.130000
     28 H15        12.4190    0.6760   -7.0560 ha        1 32F      0.128000
     29 H14        10.8550    0.6840   -5.1230 ha        1 32F      0.151000
     30 H6          4.4280    0.9540   -5.4020 ha        1 32F      0.130500
     31 H4          2.8280    0.8970   -3.5230 ha        1 32F      0.152500
     32 H2          5.7550   -1.1690   -1.0760 ha        1 32F      0.152500
     33 H3          7.3760   -1.1120   -2.9800 ha        1 32F      0.130500
@<TRIPOS>BOND
     1    1    2 1   
     2    2    3 1   
     3    2    4 1   
     4    4   20 1   
     5    4   23 1   
     6    4   24 1   
     7    5    6 1   
     8    5   15 2   
     9    5   21 1   
    10    6    7 1   
    11    6   25 1   
    12    7    8 2   
    13    7    9 1   
    14    9   10 ar  
    15    9   14 ar  
    16   10   11 ar  
    17   10   26 1   
    18   11   12 ar  
    19   11   27 1   
    20   12   13 ar  
    21   12   28 1   
    22   13   14 ar  
    23   13   29 1   
    24   14   15 1   
    25   16   17 ar  
    26   16   21 ar  
    27   16   33 1   
    28   17   18 ar  
    29   17   32 1   
    30   18   19 ar  
    31   18   20 1   
    32   19   22 ar  
    33   19   31 1   
    34   21   22 ar  
    35   22   30 1   
@<TRIPOS>SUBSTRUCTURE
     1 32F         1 TEMP              0 ****  ****    0 ROOT
