@<TRIPOS>MOLECULE
32G
   63    63     1     0     0
SMALL
bcc


@<TRIPOS>ATOM
      1 N1         -0.8190    0.6400    3.2310 ne        1 32G     -0.727700
      2 C2         -0.2980   -0.5580    3.5140 c1        1 32G      0.218400
      3 N3          1.0660   -0.7710    3.7060 nu        1 32G     -0.220600
      4 C4          1.9200    0.2990    3.6020 c2        1 32G      0.025800
      5 C5          1.3950    1.6070    3.2970 ce        1 32G     -0.371700
      6 C6         -0.0270    1.7560    3.1110 ce        1 32G      0.620600
      7 N6         -0.5620    2.9850    2.8370 nv        1 32G     -0.516100
      8 N7          2.5070    2.4800    3.2600 nu        1 32G     -0.228600
      9 C8          3.6580    1.7850    3.5240 c1        1 32G     -0.026000
     10 N9          3.3180    0.4500    3.7440 nh        1 32G     -0.148600
     11 OAB        19.1690   11.4710    7.1590 o         1 32G     -0.579100
     12 CAE         6.9990    3.8310    3.4580 cc        1 32G     -0.245600
     13 CAF        11.3470    5.7370    4.7560 c3        1 32G     -0.079400
     14 CAG        10.2210    4.7340    4.8900 c3        1 32G     -0.076400
     15 CAH        12.0700    5.9200    6.0740 c3        1 32G     -0.081400
     16 CAI         6.6690   -2.3040    3.6380 c3        1 32G     -0.085900
     17 CAJ         4.3560   -1.6610    2.9680 c2        1 32G     -0.231200
     18 CAL        13.2160    6.9010    5.9320 c3        1 32G     -0.072400
     19 CAM         5.4470   -2.4190    2.8190 c2        1 32G     -0.123200
     20 CAN         4.2470   -0.6120    4.0290 c3        1 32G      0.071500
     21 CAO        17.8740    7.7010    9.5830 c1        1 32G     -0.198500
     22 NAS         8.5070    2.2350    4.0040 nd        1 32G     -0.368000
     23 NAT         7.3530    1.6890    3.9930 nc        1 32G     -0.209800
     24 NAU        18.8490    9.9050    8.7740 ns        1 32G     -0.437700
     25 NAV        15.7000    8.5440    6.1640 n2        1 32G     -0.761100
     26 SAW        12.8290    8.1320    8.2580 sh        1 32G     -0.358900
     27 CAX        18.6520   10.3940    7.4830 c         1 32G      0.668900
     28 CAY         8.3780    3.6040    3.6740 cd        1 32G      0.252600
     29 CBC        13.9190    7.1370    7.2520 c3        1 32G     -0.074900
     30 NBD         6.4120    2.5860    3.6750 na        1 32G     -0.060600
     31 CBF        18.3370    8.7390    9.1970 c1        1 32G     -0.046800
     32 CBG        15.2350    7.8400    7.1200 c2        1 32G      0.425200
     33 H2          1.4070   -1.6830    3.9090 hn        1 32G      0.309700
     34 HN6        -1.5360    3.0810    2.6830 hn        1 32G      0.289200
     35 HN6A        0.0290    3.7590    2.6780 hn        1 32G      0.289200
     36 H8          2.4470    3.4480    3.0860 hn        1 32G      0.310700
     37 HAE         6.4410    4.7220    3.1870 h4        1 32G      0.181000
     38 HAF         9.5020    5.0770    5.6780 hc        1 32G      0.052200
     39 HAFA       12.0710    5.3890    3.9740 hc        1 32G      0.039200
     40 HAG        10.9370    6.7240    4.4130 hc        1 32G      0.039200
     41 HAGA       10.6330    3.7450    5.2220 hc        1 32G      0.052200
     42 HAH        12.4620    4.9300    6.4280 hc        1 32G      0.052700
     43 HAHA       11.3530    6.2920    6.8540 hc        1 32G      0.052700
     44 HAI         7.1560   -1.3060    3.4800 hc        1 32G      0.055033
     45 HAIA        7.4070   -3.0990    3.3700 hc        1 32G      0.055033
     46 HAJ         6.4290   -2.4000    4.7270 hc        1 32G      0.055033
     47 HAJA        3.4830   -1.7970    2.3090 ha        1 32G      0.130000
     48 HAK         9.0840    5.5550    3.2340 hc        1 32G      0.048700
     49 HAKA       10.2170    4.2130    2.7870 hc        1 32G      0.048700
     50 HAL        12.8290    7.8750    5.5280 hc        1 32G      0.055700
     51 HALA       13.9560    6.4970    5.1890 hc        1 32G      0.055700
     52 HAM         5.4190    2.3360    3.6120 hn        1 32G      0.376700
     53 HAMA        5.4670   -3.1950    2.0340 ha        1 32G      0.128000
     54 HAN         5.2590   -0.1350    4.2020 h1        1 32G      0.083700
     55 HANA        3.9260   -1.1100    4.9930 h1        1 32G      0.083700
     56 HAO        13.6230    8.3350    9.2930 hs        1 32G      0.202800
     57 HAOA       17.4920    6.7780    9.9310 ha        1 32G      0.178500
     58 HNAU       19.4030   10.4240    9.4230 hn        1 32G      0.334500
     59 HNAV       18.0210    9.7610    6.8210 h5        1 32G      0.082200
     60 HBC        15.1210    8.6560    5.3580 hn        1 32G      0.391400
     61 HBF        14.0920    6.1520    7.7620 h1        1 32G      0.084700
     62 HBG        15.8950    7.7240    8.0120 h4        1 32G      0.018800
     63 CAK         9.4910    4.5640    3.5710 c3        1 32G     -0.088700
@<TRIPOS>BOND
     1    1    2 2   
     2    1    6 1   
     3    2    3 2   
     4    3    4 1   
     5    3   33 1   
     6    4    5 2   
     7    4   10 1   
     8    5    6 1   
     9    5    8 1   
    10    6    7 2   
    11    7   34 1   
    12    7   35 1   
    13    8    9 2   
    14    8   36 1   
    15    9   10 2   
    16   10   20 1   
    17   11   27 2   
    18   12   28 2   
    19   12   30 1   
    20   12   37 1   
    21   13   14 1   
    22   13   15 1   
    23   13   39 1   
    24   13   40 1   
    25   14   38 1   
    26   14   41 1   
    27   14   63 1   
    28   15   18 1   
    29   15   42 1   
    30   15   43 1   
    31   16   19 1   
    32   16   44 1   
    33   16   45 1   
    34   16   46 1   
    35   17   19 2   
    36   17   20 1   
    37   17   47 1   
    38   18   29 1   
    39   18   50 1   
    40   18   51 1   
    41   19   53 1   
    42   20   54 1   
    43   20   55 1   
    44   21   31 3   
    45   21   57 1   
    46   22   23 2   
    47   22   28 1   
    48   23   30 1   
    49   24   27 1   
    50   24   31 1   
    51   24   58 1   
    52   25   32 2   
    53   25   60 1   
    54   26   29 1   
    55   26   56 1   
    56   27   59 1   
    57   28   63 1   
    58   29   32 1   
    59   29   61 1   
    60   30   52 1   
    61   32   62 1   
    62   48   63 1   
    63   49   63 1   
@<TRIPOS>SUBSTRUCTURE
     1 32G         1 TEMP              0 ****  ****    0 ROOT
