@<TRIPOS>MOLECULE
32G
   63    67     1     0     0
SMALL
bcc


@<TRIPOS>ATOM
      1 N1         10.2220   -2.4340    1.0400 nb        1 32G     -0.797000
      2 C2          8.9920   -2.6790    0.5160 ca        1 32G      0.687900
      3 N3          8.0880   -1.8320   -0.0300 nb        1 32G     -0.740000
      4 C4          8.5240   -0.5360   -0.0380 ca        1 32G      0.456800
      5 C5          9.8160   -0.1130    0.4890 ca        1 32G     -0.235200
      6 C6         10.6650   -1.1310    1.0410 ca        1 32G      0.765200
      7 N6         11.8830   -0.8010    1.5710 nh        1 32G     -0.959500
      8 N7          9.9660    1.2740    0.3350 nc        1 32G     -0.541100
      9 C8          8.8330    1.6840   -0.2520 cd        1 32G      0.402700
     10 N9          7.9210    0.6330   -0.5270 na        1 32G     -0.266000
     11 OAB       -10.3980   -3.0420   -0.7420 o         1 32G     -0.616500
     12 CAE         0.7500   -0.0500   -0.2860 cc        1 32G     -0.227600
     13 CAF        -4.1180   -0.0480   -1.0100 c3        1 32G     -0.079400
     14 CAG        -2.8110    0.6250   -0.6470 c3        1 32G     -0.077400
     15 CAH        -5.2890    0.6570   -0.3580 c3        1 32G     -0.081400
     16 CAI         4.1440    0.8850   -0.7100 c3        1 32G     -0.099400
     17 CAJ         5.4840    0.7680   -0.0160 c3        1 32G     -0.106400
     18 CAL        -6.6000   -0.0020   -0.7410 c3        1 32G     -0.072400
     19 CAM         3.0280    0.8680    0.3360 c3        1 32G      0.056300
     20 CAN         6.6000    0.7550   -1.0640 c3        1 32G      0.052300
     21 CAO        -9.4590    0.4720    1.9550 c3        1 32G     -0.045300
     22 NAS         0.0190    1.8690   -1.2380 nd        1 32G     -0.354000
     23 NAT         1.1940    2.0950   -0.8160 nc        1 32G     -0.167800
     24 NAU       -10.8420   -1.0850    0.5140 n         1 32G     -0.513900
     25 NAV        -9.2940   -1.0120   -1.2470 n         1 32G     -0.516900
     26 SAW        -7.7210    0.2970    1.7000 ss        1 32G     -0.290200
     27 CAX       -10.1720   -1.8460   -0.4930 c         1 32G      0.749500
     28 CAY        -0.3500    0.5290   -0.9460 cd        1 32G      0.262600
     29 CBC        -7.7680    0.6590   -0.0470 c3        1 32G     -0.009600
     30 NBD         1.6960    0.9860   -0.2200 na        1 32G      0.043400
     31 CBF       -10.1850    0.2120    0.6410 c3        1 32G      0.057700
     32 CBG        -9.1520    0.2710   -0.5720 c3        1 32G      0.060700
     33 H2          8.6840   -3.7470    0.5440 h5        1 32G      0.051100
     34 HN6        12.4950   -1.5020    1.9080 hn        1 32G      0.449300
     35 HN6A       12.1950    0.1350    1.5050 hn        1 32G      0.449300
     36 H8          8.6020    2.7200   -0.5300 h5        1 32G      0.073800
     37 HAE         0.9210   -1.0430    0.1210 h4        1 32G      0.190000
     38 HAF        -4.2480   -0.0430   -2.1240 hc        1 32G      0.040700
     39 HAFA       -4.0950   -1.1210   -0.6830 hc        1 32G      0.040700
     40 HAG        -2.8310    1.6960   -0.9790 hc        1 32G      0.053200
     41 HAGA       -2.6820    0.6230    0.4670 hc        1 32G      0.053200
     42 HAH        -5.1710    0.6350    0.7590 hc        1 32G      0.052200
     43 HAHA       -5.3010    1.7340   -0.6710 hc        1 32G      0.052200
     44 HAI         4.1000    1.8370   -1.3010 hc        1 32G      0.062200
     45 HAIA        4.0110    0.0350   -1.4290 hc        1 32G      0.062200
     46 HAJ         5.6250    1.6270    0.6900 hc        1 32G      0.059700
     47 HAJA        5.5220   -0.1770    0.5890 hc        1 32G      0.059700
     48 HAK        -1.6270   -1.1640   -0.9770 hc        1 32G      0.052700
     49 HAKA       -1.7690   -0.0710   -2.4160 hc        1 32G      0.052700
     50 HAL        -6.7380    0.0730   -1.8530 hc        1 32G      0.055200
     51 HALA       -6.5540   -1.0910   -0.4730 hc        1 32G      0.055200
     52 HAM         3.0680   -0.1000    0.9120 h1        1 32G      0.067700
     53 HAMA        3.1880    1.7200    1.0580 h1        1 32G      0.067700
     54 HAN         6.5560    1.7100   -1.6610 h1        1 32G      0.068700
     55 HANA        6.4280   -0.1140   -1.7640 h1        1 32G      0.068700
     56 HAO        -9.7620   -0.2330    2.7670 h1        1 32G      0.082700
     57 HAOA       -9.6900    1.5060    2.3090 h1        1 32G      0.082700
     58 HNAU      -11.0660   -1.5730    1.3510 hn        1 32G      0.312500
     59 HNAV       -8.4760   -1.4470   -1.6090 hn        1 32G      0.316500
     60 HBC        -7.6680    1.7730   -0.1640 h1        1 32G      0.083700
     61 HBF       -10.9750    1.0000    0.4860 h1        1 32G      0.088700
     62 HBG        -9.4940    1.0610   -1.3010 h1        1 32G      0.087700
     63 CAK        -1.6410   -0.0880   -1.2990 c3        1 32G     -0.091700
@<TRIPOS>BOND
     1    1    2 ar  
     2    1    6 ar  
     3    2    3 ar  
     4    2   33 1   
     5    3    4 ar  
     6    4    5 ar  
     7    4   10 1   
     8    5    6 ar  
     9    5    8 1   
    10    6    7 1   
    11    7   34 1   
    12    7   35 1   
    13    8    9 2   
    14    9   10 1   
    15    9   36 1   
    16   10   20 1   
    17   11   27 2   
    18   12   28 2   
    19   12   30 1   
    20   12   37 1   
    21   13   14 1   
    22   13   15 1   
    23   13   38 1   
    24   13   39 1   
    25   14   40 1   
    26   14   41 1   
    27   14   63 1   
    28   15   18 1   
    29   15   42 1   
    30   15   43 1   
    31   16   17 1   
    32   16   19 1   
    33   16   44 1   
    34   16   45 1   
    35   17   20 1   
    36   17   46 1   
    37   17   47 1   
    38   18   29 1   
    39   18   50 1   
    40   18   51 1   
    41   19   30 1   
    42   19   52 1   
    43   19   53 1   
    44   20   54 1   
    45   20   55 1   
    46   21   26 1   
    47   21   31 1   
    48   21   56 1   
    49   21   57 1   
    50   22   23 2   
    51   22   28 1   
    52   23   30 1   
    53   24   27 1   
    54   24   31 1   
    55   24   58 1   
    56   25   27 1   
    57   25   32 1   
    58   25   59 1   
    59   26   29 1   
    60   28   63 1   
    61   29   32 1   
    62   29   60 1   
    63   31   32 1   
    64   31   61 1   
    65   32   62 1   
    66   48   63 1   
    67   49   63 1   
@<TRIPOS>SUBSTRUCTURE
     1 32G         1 TEMP              0 ****  ****    0 ROOT
