@<TRIPOS>MOLECULE
32G
   63    59     1     0     0
SMALL
bcc


@<TRIPOS>ATOM
      1 N1        -11.3310   -1.0360   -3.2390 n1        1 32G     -0.271000
      2 C2        -10.2910   -1.1760   -4.1280 c1        1 32G      0.025000
      3 N3         -9.0150   -1.0620   -3.6990 n1        1 32G     -0.214000
      4 C4         -8.7560   -0.8070   -2.3850 c1        1 32G     -0.089500
      5 C5         -9.7810   -0.6690   -1.5110 c1        1 32G     -0.089500
      6 C6        -11.0820   -0.7860   -1.9500 c1        1 32G      0.244000
      7 N6        -12.2840   -0.4610   -1.2370 n3        1 32G     -0.357000
      8 N7         -9.2560   -0.4250   -0.2890 n1        1 32G     -0.148500
      9 C8         -7.9090   -0.4130   -0.4060 c1        1 32G     -0.053000
     10 N9         -7.5980   -0.6480   -1.6980 n1        1 32G     -0.148500
     11 OAB        11.2130   -0.3500    1.6260 o         1 32G     -0.341000
     12 CAE        -0.4930    0.9710   -1.8300 c1        1 32G     -0.138000
     13 CAF         4.1810    0.6600    0.1690 c3        1 32G     -0.158000
     14 CAG         2.7040    0.8480    0.2740 c3        1 32G     -0.156000
     15 CAH         4.7920    0.7180    1.5490 c3        1 32G     -0.160000
     16 CAI        -3.9270   -0.3090   -2.1510 c3        1 32G     -0.178000
     17 CAJ        -5.3630    0.1490   -2.2350 c3        1 32G     -0.185000
     18 CAK         2.0090    0.3660   -1.0540 c3        1 32G     -0.076000
     19 CAL         6.2280    0.3240    1.4740 c3        1 32G     -0.151000
     20 CAM        -2.9840    0.9420   -1.8880 c3        1 32G     -0.003000
     21 CAN        -6.3160   -1.0870   -2.0790 c2        1 32G     -0.007000
     22 CAO         8.5590    1.0670    4.5010 c3        1 32G     -0.306000
     23 NAS        -0.2320   -0.2700   -0.0220 n2        1 32G     -0.091000
     24 NAT        -1.5520   -0.2840   -0.3810 n2        1 32G      0.002000
     25 NAU        10.1940   -0.3720    3.8750 n         1 32G     -0.323000
     26 NAV         8.7640   -0.3710    1.8000 n         1 32G     -0.326000
     27 SAW         7.0130    1.2710    3.8590 ss        1 32G      0.074000
     28 CAX        10.2400   -0.2350    2.3010 c2        1 32G      0.340000
     29 CAY         0.4270    0.4930   -0.9000 c2        1 32G     -0.160000
     30 CBC         6.7450   -0.0920    2.9380 c3        1 32G     -0.231000
     31 NBD        -1.6940    0.4910   -1.5030 n3        1 32G     -0.170000
     32 CBF         8.9190   -0.3180    4.2090 c3        1 32G     -0.019000
     33 CBG         8.0510   -0.7640    2.8530 c3        1 32G     -0.016000
     34 H2        -10.4770   -1.3590   -5.0750 ha        1 32G      0.188000
     35 HN6       -12.2340   -0.0350   -0.4270 hn        1 32G      0.244500
     36 HN6A      -13.0930   -0.6120   -1.6200 hn        1 32G      0.244500
     37 H8         -7.2720   -0.3020    0.3270 DU        1 32G      0.196500
     38 HAE        -0.2800    1.5020   -2.6380 DU        1 32G      0.196500
     39 HAF         4.5690    1.3820   -0.3950 hc        1 32G      0.080000
     40 HAFA        4.3740   -0.2200   -0.2420 hc        1 32G      0.080000
     41 HAG         2.3780    0.3490    0.9970 hc        1 32G      0.092500
     42 HAGA        2.5010    1.8270    0.4220 hc        1 32G      0.092500
     43 HAH         4.3050    0.0910    2.1540 hc        1 32G      0.091500
     44 HAHA        4.7170    1.6930    1.9230 hc        1 32G      0.091500
     45 HAI        -3.6710   -0.7390   -2.9980 hc        1 32G      0.101500
     46 HAIA       -3.8330   -0.9390   -1.4290 hc        1 32G      0.101500
     47 HAJ        -5.5390    0.7780   -1.5380 hc        1 32G      0.099000
     48 HAJA       -5.5270    0.5920   -3.1430 hc        1 32G      0.099000
     49 HAK         2.2290   -0.5020   -1.2140 hc        1 32G      0.092000
     50 HAKA        2.3200    0.9450   -1.8310 hc        1 32G      0.092000
     51 HAL         6.3270   -0.4450    0.8560 hc        1 32G      0.094500
     52 HALA        6.7340    1.0480    1.1560 hc        1 32G      0.094500
     53 HAM        -3.3630    1.4940   -1.1720 h1        1 32G      0.107000
     54 HAMA       -2.9110    1.4830   -2.7200 h1        1 32G      0.107000
     55 HAN        -6.3740   -1.5540   -2.9190 ha        1 32G      0.108000
     56 HANA       -5.9430   -1.7190   -1.3620 ha        1 32G      0.108000
     57 HAO         9.1800    1.6690    4.0680 h1        1 32G      0.122000
     58 HAOA        8.5520    1.2230    5.4600 h1        1 32G      0.122000
     59 HNAU       10.9140   -0.2520    4.4510 hn        1 32G      0.226000
     60 HNAV        8.4810   -0.3910    0.8900 hn        1 32G      0.230000
     61 HBC         6.1160   -0.6540    3.3600 h1        1 32G      0.123000
     62 HBF         8.7200   -0.9170    4.9810 h1        1 32G      0.128000
     63 HBG         7.9190   -1.8000    2.8330 h1        1 32G      0.127000
@<TRIPOS>BOND
     1    1    6 1   
     2    2    3 1   
     3    2   34 1   
     4    4    5 1   
     5    6    7 1   
     6    7   35 1   
     7    7   36 1   
     8    8    9 1   
     9    9   10 1   
    10   11   28 1   
    11   12   29 1   
    12   12   31 1   
    13   13   14 1   
    14   13   15 1   
    15   13   39 1   
    16   13   40 1   
    17   14   18 1   
    18   14   41 1   
    19   14   42 1   
    20   15   19 1   
    21   15   43 1   
    22   15   44 1   
    23   16   17 1   
    24   16   20 1   
    25   16   45 1   
    26   16   46 1   
    27   17   21 1   
    28   17   47 1   
    29   17   48 1   
    30   18   29 1   
    31   18   49 1   
    32   18   50 1   
    33   19   30 1   
    34   19   51 1   
    35   19   52 1   
    36   20   31 1   
    37   20   53 1   
    38   20   54 1   
    39   21   55 1   
    40   21   56 1   
    41   22   27 1   
    42   22   32 1   
    43   22   57 1   
    44   22   58 1   
    45   23   24 1   
    46   23   29 1   
    47   24   31 1   
    48   25   28 1   
    49   25   32 1   
    50   25   59 1   
    51   26   28 1   
    52   26   33 1   
    53   26   60 1   
    54   27   30 1   
    55   30   33 1   
    56   30   61 1   
    57   32   33 1   
    58   32   62 1   
    59   33   63 1   
@<TRIPOS>SUBSTRUCTURE
     1 32G         1 TEMP              0 ****  ****    0 ROOT
