@<TRIPOS>MOLECULE
32G
   63    63     1     0     0
SMALL
bcc


@<TRIPOS>ATOM
      1 N1          3.1190    4.6340    2.4970 n2        1 32G     -0.293000
      2 C2          2.3460    3.7050    1.9260 c1        1 32G     -0.012000
      3 N3          2.6230    2.3420    1.9800 n3        1 32G     -0.200000
      4 C4          3.7460    1.9240    2.6530 c2        1 32G      0.068000
      5 C5          4.6060    2.8960    3.2810 c2        1 32G     -0.250000
      6 C6          4.2580    4.2930    3.1860 c2        1 32G      0.260000
      7 N6          5.0510    5.2360    3.7760 n3        1 32G     -0.361000
      8 N7          5.6580    2.1710    3.8810 n3        1 32G     -0.203000
      9 C8          5.4910    0.8330    3.6540 c1        1 32G     -0.074000
     10 N9          4.3190    0.6580    2.9100 n3        1 32G     -0.201000
     11 OAB        13.3400    8.6510    6.6640 o         1 32G     -0.385000
     12 CAE         8.1770    1.7770    5.2290 c1        1 32G     -0.216000
     13 CAF        12.2080    4.1680    6.5920 c3        1 32G     -0.158000
     14 CAG        11.2390    3.0060    6.6420 c3        1 32G     -0.157000
     15 CAH        12.9000    4.3550    7.9260 c3        1 32G     -0.153000
     16 CAI         2.2760   -2.8650    1.1750 c3        1 32G     -0.198000
     17 CAJ         3.5200   -0.7000    1.0020 c2        1 32G     -0.215000
     18 CAL        13.8760    5.5110    7.8660 c3        1 32G     -0.183000
     19 CAM         2.8550   -1.7190    0.4500 c2        1 32G     -0.140000
     20 CAN         3.7880   -0.6010    2.4710 c3        1 32G      0.019000
     21 CAO        12.3040   13.1630    5.8220 c2        1 32G     -0.286000
     22 NAS         9.9770    0.3310    5.4750 n2        1 32G      0.014000
     23 NAT         9.0180   -0.4310    5.4670 n2        1 32G     -0.073000
     24 NAU        12.7990   10.8250    6.2380 n         1 32G     -0.337000
     25 NAV        15.8130    7.7290    8.1660 n2        1 32G     -0.220000
     26 SAW        14.3530    5.0620   10.4880 s         1 32G      0.035000
     27 CAX        13.6610    9.8530    6.7000 c2        1 32G      0.267000
     28 CAY         9.5560    1.7300    5.3330 c2        1 32G     -0.288000
     29 CBC        14.5890    5.7700    9.1450 c2        1 32G     -0.175000
     30 NBD         7.7700    0.3420    5.3160 n4        1 32G     -0.099000
     31 CBF        13.1120   12.1850    6.2600 c2        1 32G     -0.033000
     32 CBG        15.6220    6.8400    9.0600 c2        1 32G     -0.070000
     33 H2          2.0240    1.6880    1.5300 hn        1 32G      0.256000
     34 HN6         4.8220    6.1980    3.7050 hn        1 32G      0.242000
     35 HN6A        5.8770    4.9680    4.2460 hn        1 32G      0.242000
     36 H8          6.4350    2.5680    4.3780 hn        1 32G      0.308000
     37 HAE         7.2500    0.0550    4.4620 hn        1 32G      0.268000
     38 HAF        10.4790    3.1840    7.4480 hc        1 32G      0.086500
     39 HAFA       11.6590    5.1070    6.3160 hc        1 32G      0.079500
     40 HAG        12.9730    3.9850    5.7910 hc        1 32G      0.079500
     41 HAGA       11.7910    2.0660    6.9050 hc        1 32G      0.086500
     42 HAH        12.1360    4.5460    8.7260 hc        1 32G      0.094000
     43 HAHA       13.4420    3.4140    8.2080 hc        1 32G      0.094000
     44 HAI         2.7030   -2.9750    2.2020 hc        1 32G      0.087000
     45 HAIA        2.4680   -3.8140    0.6140 hc        1 32G      0.087000
     46 HAJ         1.1670   -2.7360    1.2670 hc        1 32G      0.087000
     47 HAJA        3.9210    0.1090    0.3680 ha        1 32G      0.140000
     48 HAK         9.9930    3.7790    5.0430 hc        1 32G      0.091500
     49 HAKA       11.3000    2.6450    4.5070 hc        1 32G      0.091500
     50 HAL        14.6370    5.3090    7.0600 hc        1 32G      0.122000
     51 HALA       13.3240    6.4480    7.5600 hc        1 32G      0.122000
     52 HAM         7.1640    0.1890    6.1230 hn        1 32G      0.268000
     53 HAMA        2.7000   -1.7360   -0.6440 ha        1 32G      0.129000
     54 HAN         2.8280   -0.7970    3.0370 h1        1 32G      0.111500
     55 HANA        4.5340   -1.3990    2.7650 h1        1 32G      0.111500
     56 HAO        11.3080   12.9910    5.3980 ha        1 32G      0.127500
     57 HAOA       12.6220   14.2110    5.8720 ha        1 32G      0.127500
     58 HNAU       11.9130   10.5510    5.8730 hn        1 32G      0.235000
     59 HNAV       14.6370   10.2140    7.0970 h5        1 32G      0.148000
     60 HBC        15.1960    7.7260    7.3780 hn        1 32G      0.161000
     61 HBF        16.3090    6.8540    9.9390 h4        1 32G      0.163000
     62 HBG        14.1120   12.4130    6.6810 h4        1 32G      0.141000
     63 CAK        10.5360    2.8320    5.3090 c3        1 32G     -0.068000
@<TRIPOS>BOND
     1    1    2 1   
     2    1    6 1   
     3    2    3 1   
     4    3    4 1   
     5    3   33 1   
     6    4    5 1   
     7    4   10 1   
     8    5    6 1   
     9    5    8 1   
    10    6    7 1   
    11    7   34 1   
    12    7   35 1   
    13    8    9 1   
    14    8   36 1   
    15    9   10 1   
    16   10   20 1   
    17   11   27 1   
    18   12   28 1   
    19   12   30 1   
    20   13   14 1   
    21   13   15 1   
    22   13   39 1   
    23   13   40 1   
    24   14   38 1   
    25   14   41 1   
    26   14   63 1   
    27   15   18 1   
    28   15   42 1   
    29   15   43 1   
    30   16   19 1   
    31   16   44 1   
    32   16   45 1   
    33   16   46 1   
    34   17   19 1   
    35   17   20 1   
    36   17   47 1   
    37   18   29 1   
    38   18   50 1   
    39   18   51 1   
    40   19   53 1   
    41   20   54 1   
    42   20   55 1   
    43   21   31 1   
    44   21   56 1   
    45   21   57 1   
    46   22   23 1   
    47   22   28 1   
    48   23   30 1   
    49   24   27 1   
    50   24   31 1   
    51   24   58 1   
    52   25   32 1   
    53   25   60 1   
    54   26   29 1   
    55   27   59 1   
    56   28   63 1   
    57   29   32 1   
    58   30   37 1   
    59   30   52 1   
    60   31   62 1   
    61   32   61 1   
    62   48   63 1   
    63   49   63 1   
@<TRIPOS>SUBSTRUCTURE
     1 32G         1 TEMP              0 ****  ****    0 ROOT
