@<TRIPOS>MOLECULE
32G
   64    64     1     0     0
SMALL
bcc


@<TRIPOS>ATOM
      1 N1         -0.4810    0.5220   -0.1220 n2        1 32G     -0.264000
      2 C2          0.1800    1.7000   -0.2830 c1        1 32G      0.018000
      3 N3          1.1050    2.1560    0.6210 n3        1 32G     -0.157000
      4 C4          1.4000    1.4110    1.7510 c2        1 32G     -0.061000
      5 C5          0.7020    0.1110    1.9480 c2        1 32G     -0.222000
      6 C6         -0.2240   -0.2400    0.9650 c2        1 32G      0.040000
      7 N6         -0.9850   -1.5100    1.1050 n4        1 32G     -0.032000
      8 N7          1.2370   -0.4210    3.1320 n3        1 32G     -0.227000
      9 C8          2.2000    0.4250    3.6440 c1        1 32G     -0.011000
     10 N9          2.3150    1.5550    2.7880 n3        1 32G      0.053000
     11 OAB        19.4690    8.3060    6.1110 o         1 32G     -0.265000
     12 CAE         8.0110    1.6160    5.2420 c2        1 32G     -0.182000
     13 CAF        12.2930    3.8200    6.1300 c3        1 32G     -0.158000
     14 CAG        10.8540    3.4870    6.4680 c3        1 32G     -0.158000
     15 CAH        12.6680    5.1800    6.6800 c3        1 32G     -0.160000
     16 CAI         4.9730    1.9460    4.4530 c3        1 32G     -0.214000
     17 CAJ         3.7970    2.9070    4.2420 c3        1 32G     -0.010000
     18 CAL        14.0910    5.5460    6.3110 c3        1 32G     -0.166000
     19 CAM         5.6550    2.2770    5.7660 c3        1 32G     -0.094000
     20 CAN         3.1270    2.6320    2.9720 c2        1 32G     -0.518000
     21 CAO        16.1960   11.6400    8.1120 c1        1 32G     -0.243000
     22 NAS         8.5080    1.6460    7.4790 n2        1 32G      0.037000
     23 NAT         7.3170    1.3780    7.4570 n2        1 32G      0.074000
     24 NAU        19.2840   10.5110    7.0870 n2        1 32G     -0.344000
     25 NAV        16.7810    6.7390    6.0330 n3        1 32G     -0.211000
     26 SAW        13.4300    8.0840    5.7680 sh        1 32G     -0.030000
     27 CAX        19.2440    9.3820    6.6120 c1        1 32G      0.327000
     28 CAY         9.0500    1.8210    6.1140 c2        1 32G     -0.017000
     29 CBC        14.4260    6.9580    6.7370 c3        1 32G     -0.214000
     30 NBD         6.8000    1.3250    6.0610 n4        1 32G     -0.046000
     31 CBF        16.1190   10.5130    7.7180 c1        1 32G     -0.243000
     32 CBG        15.8170    7.4390    6.5510 c1        1 32G     -0.185000
     33 H2          1.5420    3.0420    0.4840 hn        1 32G      0.273000
     34 HN6        -1.6050   -1.6370    0.2930 hn        1 32G      0.253667
     35 HN6A       -1.5510   -1.4700    1.9560 hn        1 32G      0.253667
     36 H8          0.9460   -1.2580    3.5600 hn        1 32G      0.246000
     37 HAE         7.9300    1.6570    4.1510 hx        1 32G      0.248000
     38 HAF        10.1810    4.2910    6.0690 hc        1 32G      0.098500
     39 HAFA       12.9730    3.0370    6.5560 hc        1 32G      0.087000
     40 HAG        12.4310    3.8130    5.0160 hc        1 32G      0.087000
     41 HAGA       10.7270    3.4610    7.5820 hc        1 32G      0.098500
     42 HAH        11.9680    5.9600    6.2730 hc        1 32G      0.097000
     43 HAHA       12.5550    5.1800    7.7960 hc        1 32G      0.097000
     44 HAI         6.4640    0.3630    5.8860 hn        1 32G      0.280000
     45 HAIA        4.5660    0.8990    4.4590 hc        1 32G      0.107000
     46 HAJ         5.6850    2.0470    3.5950 hc        1 32G      0.107000
     47 HAJA        3.1000    2.8010    5.1190 hc        1 32G      0.074500
     48 HAK        10.6460    2.1580    4.7590 hc        1 32G      0.130500
     49 HAKA       11.1140    1.3370    6.3120 hc        1 32G      0.130500
     50 HAL        14.2320    5.4400    5.2030 hc        1 32G      0.089500
     51 HALA       14.7980    4.8310    6.8120 hc        1 32G      0.089500
     52 HAM         6.0760    3.3200    5.7500 hx        1 32G      0.146000
     53 HAMA        4.9190    2.1860    6.6170 hx        1 32G      0.146000
     54 HAN         4.1810    3.9610    4.2270 hc        1 32G      0.074500
     55 HANA        3.2370    3.3270    2.1370 h4        1 32G      0.142000
     56 HAO        14.0400    9.2250    6.0760 hs        1 32G      0.071000
     57 HAOA       16.2550   12.6410    8.4630 ha        1 32G      0.240000
     58 HNAU       18.5410   11.0490    7.4570 hn        1 32G      0.282000
     59 HNAV       17.6830    7.1580    5.9300 hn        1 32G      0.210000
     60 HBC        16.7060    5.7970    5.7060 hn        1 32G      0.210000
     61 HBF        14.1820    7.0930    7.8260 h1        1 32G      0.140000
     62 HBG        16.0420    9.5010    7.3680 ha        1 32G      0.240000
     63 H63        -0.3320   -2.2940    1.1570 hn        1 32G      0.253667
     64 CAK        10.4660    2.1460    5.8690 c3        1 32G     -0.120000
@<TRIPOS>BOND
     1    1    2 1   
     2    1    6 1   
     3    2    3 1   
     4    3    4 1   
     5    3   33 1   
     6    4    5 1   
     7    4   10 1   
     8    5    6 1   
     9    5    8 1   
    10    6    7 1   
    11    7   34 1   
    12    7   35 1   
    13    7   63 1   
    14    8    9 1   
    15    8   36 1   
    16    9   10 1   
    17   10   20 1   
    18   11   27 1   
    19   12   28 1   
    20   12   30 1   
    21   12   37 1   
    22   13   14 1   
    23   13   15 1   
    24   13   39 1   
    25   13   40 1   
    26   14   38 1   
    27   14   41 1   
    28   14   64 1   
    29   15   18 1   
    30   15   42 1   
    31   15   43 1   
    32   16   17 1   
    33   16   19 1   
    34   16   45 1   
    35   16   46 1   
    36   17   20 1   
    37   17   47 1   
    38   17   54 1   
    39   18   29 1   
    40   18   50 1   
    41   18   51 1   
    42   19   30 1   
    43   19   52 1   
    44   19   53 1   
    45   20   55 1   
    46   21   31 1   
    47   21   57 1   
    48   22   23 1   
    49   22   28 1   
    50   23   30 1   
    51   24   27 1   
    52   24   58 1   
    53   25   32 1   
    54   25   59 1   
    55   25   60 1   
    56   26   29 1   
    57   26   56 1   
    58   28   64 1   
    59   29   32 1   
    60   29   61 1   
    61   30   44 1   
    62   31   62 1   
    63   48   64 1   
    64   49   64 1   
@<TRIPOS>SUBSTRUCTURE
     1 32G         1 TEMP              0 ****  ****    0 ROOT
