@<TRIPOS>MOLECULE
32H
   27    29     1     0     0
SMALL
bcc


@<TRIPOS>ATOM
      1 C4          0.1620   -0.3950   -0.0210 ca        1 32H     -0.105000
      2 N2         -3.0080    5.7830    3.1780 n1        1 32H     -0.357800
      3 C7         -0.7810    0.1010    3.5820 cc        1 32H      0.040000
      4 C6         -0.0050    0.0870    2.3480 ca        1 32H     -0.065000
      5 C9         -1.7730    2.5140    3.4840 cc        1 32H      0.306900
      6 C13        -0.8530   -0.9730    4.4490 cd        1 32H     -0.095000
      7 C8         -1.5590    1.2130    4.0510 cc        1 32H     -0.245800
      8 C1          1.3390    0.4860    2.3540 ca        1 32H     -0.106000
      9 C2          2.0880    0.4450    1.1800 ca        1 32H     -0.105000
     10 C3          1.5020    0.0050   -0.0110 ca        1 32H     -0.013900
     11 C5         -0.5880   -0.3540    1.1530 ca        1 32H     -0.106000
     12 C10        -2.5800    3.4300    4.1380 cd        1 32H     -0.161900
     13 C11        -3.2280    3.1000    5.4090 c         1 32H      0.728700
     14 O1         -3.9670    3.8460    6.0710 o         1 32H     -0.598500
     15 N1         -2.9920    1.8050    5.9360 n         1 32H     -0.415100
     16 C12        -2.1960    0.9100    5.2850 cd        1 32H      0.115500
     17 S1         -1.8250   -0.6570    5.7870 ss        1 32H      0.069200
     18 BR1        -0.0340   -2.6010    4.2750 br        1 32H      0.006900
     19 C14        -2.8160    4.7210    3.6130 ch        1 32H      0.230500
     20 O2         -1.2130    2.9120    2.3090 oh        1 32H     -0.463100
     21 BR2         2.5100   -0.0530   -1.5860 br        1 32H     -0.068100
     22 H1         -0.3100   -0.7460   -0.9530 ha        1 32H      0.156000
     23 H2          1.8070    0.8260    3.2910 ha        1 32H      0.152000
     24 H3          3.1440    0.7600    1.2010 ha        1 32H      0.156000
     25 H4         -1.6410   -0.6770    1.1410 ha        1 32H      0.152000
     26 H5         -3.4250    1.5610    6.8010 hn        1 32H      0.345500
     27 H6         -0.6720    2.1890    1.9480 ho        1 32H      0.447000
@<TRIPOS>BOND
     1    1   10 ar  
     2    1   11 ar  
     3    1   22 1   
     4    2   19 3   
     5    3    4 1   
     6    3    6 2   
     7    3    7 1   
     8    4    8 ar  
     9    4   11 ar  
    10    5    7 1   
    11    5   12 2   
    12    5   20 1   
    13    6   17 1   
    14    6   18 1   
    15    7   16 2   
    16    8    9 ar  
    17    8   23 1   
    18    9   10 ar  
    19    9   24 1   
    20   10   21 1   
    21   11   25 1   
    22   12   13 1   
    23   12   19 1   
    24   13   14 2   
    25   13   15 1   
    26   15   16 1   
    27   15   26 1   
    28   16   17 1   
    29   20   27 1   
@<TRIPOS>SUBSTRUCTURE
     1 32H         1 TEMP              0 ****  ****    0 ROOT
