@<TRIPOS>MOLECULE
32H
   27    29     1     0     0
SMALL
bcc


@<TRIPOS>ATOM
      1 C4          0.1530   -0.3870   -0.0270 ca        1 32H     -0.105000
      2 N2         -3.0060    5.7830    3.1950 n1        1 32H     -0.357800
      3 C7         -0.7790    0.0990    3.5800 cc        1 32H      0.040000
      4 C6         -0.0070    0.0890    2.3430 ca        1 32H     -0.065000
      5 C9         -1.7710    2.5140    3.4900 cc        1 32H      0.306900
      6 C13        -0.8490   -0.9770    4.4440 cd        1 32H     -0.095000
      7 C8         -1.5560    1.2110    4.0540 cc        1 32H     -0.245800
      8 C1          1.3370    0.4860    2.3470 ca        1 32H     -0.106000
      9 C2          2.0830    0.4480    1.1710 ca        1 32H     -0.105000
     10 C3          1.4940    0.0110   -0.0190 ca        1 32H     -0.013900
     11 C5         -0.5940   -0.3490    1.1480 ca        1 32H     -0.106000
     12 C10        -2.5760    3.4280    4.1480 cd        1 32H     -0.161900
     13 C11        -3.2210    3.0950    5.4200 c         1 32H      0.728700
     14 O1         -3.9580    3.8400    6.0850 o         1 32H     -0.598500
     15 N1         -2.9840    1.7990    5.9430 ns        1 32H     -0.415100
     16 C12        -2.1900    0.9050    5.2880 cd        1 32H      0.115500
     17 S1         -1.8180   -0.6640    5.7850 ss        1 32H      0.069200
     18 Br1        -0.0320   -2.6050    4.2640 br        1 32H      0.006900
     19 C14        -2.8130    4.7210    3.6260 ch        1 32H      0.230500
     20 O2         -1.2140    2.9140    2.3140 oh        1 32H     -0.463100
     21 Br2         2.4970   -0.0440   -1.5970 br        1 32H     -0.068100
     22 H1         -0.3220   -0.7350   -0.9590 ha        1 32H      0.156000
     23 H2          1.8080    0.8230    3.2830 ha        1 32H      0.152000
     24 H3          3.1390    0.7620    1.1900 ha        1 32H      0.156000
     25 H4         -1.6470   -0.6720    1.1380 ha        1 32H      0.152000
     26 H5         -3.4150    1.5530    6.8080 hn        1 32H      0.345500
     27 H6         -0.6750    2.1920    1.9500 ho        1 32H      0.447000
@<TRIPOS>BOND
     1    1   10 ar  
     2    1   11 ar  
     3    1   22 1   
     4    2   19 3   
     5    3    4 1   
     6    3    6 2   
     7    3    7 1   
     8    4    8 ar  
     9    4   11 ar  
    10    5    7 1   
    11    5   12 2   
    12    5   20 1   
    13    6   17 1   
    14    6   18 1   
    15    7   16 2   
    16    8    9 ar  
    17    8   23 1   
    18    9   10 ar  
    19    9   24 1   
    20   10   21 1   
    21   11   25 1   
    22   12   13 1   
    23   12   19 1   
    24   13   14 2   
    25   13   15 1   
    26   15   16 1   
    27   15   26 1   
    28   16   17 1   
    29   20   27 1   
@<TRIPOS>SUBSTRUCTURE
     1 32H         1 TEMP              0 ****  ****    0 ROOT
