@<TRIPOS>MOLECULE
32J
   38    41     1     0     0
SMALL
bcc


@<TRIPOS>ATOM
      1 C4          0.1390   -0.0070   -0.0460 cc        1 32J     -0.229900
      2 N2         -0.9670   -0.0040   -2.3740 n1        1 32J     -0.359800
      3 C7          0.5300    0.0190    4.6720 cc        1 32J     -0.046700
      4 C6         -0.4810   -0.0000    3.7300 cd        1 32J      0.052000
      5 C9         -2.4520    1.0410    4.8050 ca        1 32J     -0.097000
      6 C13        -2.7230   -1.0600    3.6380 ca        1 32J     -0.097000
      7 C20        -0.4740   -0.0050   -1.3190 cg        1 32J      0.210500
      8 C8         -1.8990   -0.0050    4.0520 ca        1 32J     -0.040000
      9 C18        -8.4060   -0.4490    4.6480 ca        1 32J     -0.214000
     10 C16        -7.7390    0.3620    6.8200 ca        1 32J     -0.165000
     11 C19        -7.0610   -0.4610    4.2460 ca        1 32J      0.138100
     12 C1          0.0600   -0.0130    2.3960 cd        1 32J     -0.198800
     13 C2          1.4780   -0.0020    2.4030 cc        1 32J      0.109500
     14 N1          2.2200   -0.0010    1.2560 n         1 32J     -0.415100
     15 C3          1.6030   -0.0010   -0.0180 c         1 32J      0.734700
     16 C5         -0.6030   -0.0160    1.1250 cd        1 32J      0.324900
     17 S1          2.0780    0.0190    3.9820 ss        1 32J      0.033200
     18 C10        -3.8020    1.0260    5.1410 ca        1 32J     -0.117500
     19 C11        -4.6280   -0.0350    4.7390 cp        1 32J     -0.011000
     20 C12        -4.0730   -1.0750    3.9810 ca        1 32J     -0.117500
     21 C14        -6.0360   -0.0500    5.1260 cp        1 32J     -0.066000
     22 C15        -6.4060    0.3560    6.4160 ca        1 32J     -0.088000
     23 C17        -8.7390   -0.0370    5.9340 ca        1 32J     -0.086000
     24 O2         -1.9620   -0.0340    1.1520 oh        1 32J     -0.456100
     25 O3          2.3530    0.0040   -1.0080 o         1 32J     -0.607500
     26 CL1         0.3500    0.0240    6.3320 cl        1 32J     -0.009400
     27 H1         -1.8150    1.8770    5.1290 ha        1 32J      0.137500
     28 H2         -2.3030   -1.8720    3.0270 ha        1 32J      0.137500
     29 H3         -9.1900   -0.7640    3.9440 ha        1 32J      0.135000
     30 H4         -8.0020    0.6830    7.8380 ha        1 32J      0.136000
     31 H5          3.2160    0.0050    1.2990 hn        1 32J      0.344500
     32 H6         -4.2270    1.8600    5.7210 ha        1 32J      0.143000
     33 H7         -4.7150   -1.9040    3.6430 ha        1 32J      0.143000
     34 H8         -5.6210    0.6690    7.1230 ha        1 32J      0.139000
     35 H9         -9.7930   -0.0300    6.2500 ha        1 32J      0.135000
     36 H10        -7.5090   -1.0260    2.4760 ho        1 32J      0.420000
     37 H11        -2.3050    0.0030    0.2420 ho        1 32J      0.446000
     38 O1         -6.6980   -0.8760    2.9840 oh        1 32J     -0.495100
@<TRIPOS>BOND
     1    1    7 1   
     2    1   15 1   
     3    1   16 2   
     4    2    7 3   
     5    3    4 2   
     6    3   17 1   
     7    3   26 1   
     8    4    8 1   
     9    4   12 1   
    10    5    8 ar  
    11    5   18 ar  
    12    5   27 1   
    13    6    8 ar  
    14    6   20 ar  
    15    6   28 1   
    16    9   11 ar  
    17    9   23 ar  
    18    9   29 1   
    19   10   22 ar  
    20   10   23 ar  
    21   10   30 1   
    22   11   21 ar  
    23   11   38 1   
    24   12   13 2   
    25   12   16 1   
    26   13   14 1   
    27   13   17 1   
    28   14   15 1   
    29   14   31 1   
    30   15   25 2   
    31   16   24 1   
    32   18   19 ar  
    33   18   32 1   
    34   19   20 ar  
    35   19   21 1   
    36   20   33 1   
    37   21   22 ar  
    38   22   34 1   
    39   23   35 1   
    40   24   37 1   
    41   36   38 1   
@<TRIPOS>SUBSTRUCTURE
     1 32J         1 TEMP              0 ****  ****    0 ROOT
