@<TRIPOS>MOLECULE
32J
   38    41     1     0     0
SMALL
bcc


@<TRIPOS>ATOM
      1 C4          0.1400    0.0320    0.0430 cc        1 32J     -0.229900
      2 N2         -0.9390    0.0900   -2.2970 n1        1 32J     -0.359800
      3 C7          0.4770   -0.0270    4.7640 cc        1 32J     -0.046700
      4 C6         -0.5230   -0.0160    3.8100 cd        1 32J      0.052000
      5 C9         -2.4940    1.0320    4.8820 ca        1 32J     -0.097000
      6 C13        -2.7790   -1.0440    3.6750 ca        1 32J     -0.097000
      7 C20        -0.4590    0.0640   -1.2370 cg        1 32J      0.210500
      8 C8         -1.9460   -0.0080    4.1170 ca        1 32J     -0.040000
      9 C18        -8.4650   -0.3730    4.6290 ca        1 32J     -0.214000
     10 C16        -7.8120    0.3900    6.8230 ca        1 32J     -0.165000
     11 C19        -7.1150   -0.3970    4.2430 ca        1 32J      0.138100
     12 C1          0.0330   -0.0140    2.4830 cd        1 32J     -0.198800
     13 C2          1.4510   -0.0220    2.5060 cc        1 32J      0.109500
     14 N1          2.2050   -0.0110    1.3680 n         1 32J     -0.415100
     15 C3          1.6030    0.0190    0.0870 c         1 32J      0.734700
     16 C5         -0.6160    0.0140    1.2040 cd        1 32J      0.324900
     17 S1          2.0320   -0.0360    4.0920 ss        1 32J      0.033200
     18 C10        -3.8470    1.0300    5.2020 ca        1 32J     -0.117500
     19 C11        -4.6820   -0.0130    4.7710 cp        1 32J     -0.011000
     20 C12        -4.1320   -1.0470    4.0010 ca        1 32J     -0.117500
     21 C14        -6.0950   -0.0160    5.1420 cp        1 32J     -0.066000
     22 C15        -6.4750    0.3720    6.4350 ca        1 32J     -0.088000
     23 C17        -8.8070    0.0200    5.9180 ca        1 32J     -0.086000
     24 O2         -1.9750    0.0140    1.2160 oh        1 32J     -0.456100
     25 O3          2.3650    0.0300   -0.8940 o         1 32J     -0.607500
     26 CL1         0.2770   -0.0480    6.4220 cl        1 32J     -0.009400
     27 H1         -1.8490    1.8540    5.2280 ha        1 32J      0.137500
     28 H2         -2.3620   -1.8510    3.0540 ha        1 32J      0.137500
     29 H3         -9.2440   -0.6650    3.9110 ha        1 32J      0.135000
     30 H4         -8.0820    0.6960    7.8440 ha        1 32J      0.136000
     31 H5          3.2010   -0.0200    1.4230 hn        1 32J      0.344500
     32 H6         -4.2670    1.8590    5.7920 ha        1 32J      0.143000
     33 H7         -4.7820   -1.8610    3.6420 ha        1 32J      0.143000
     34 H8         -5.6940    0.6620    7.1560 ha        1 32J      0.139000
     35 H9         -9.8640    0.0360    6.2230 ha        1 32J      0.135000
     36 H10        -7.5500   -0.9240    2.4580 ho        1 32J      0.420000
     37 H11        -2.3070    0.0700    0.3030 ho        1 32J      0.446000
     38 O1         -6.7430   -0.7940    2.9780 oh        1 32J     -0.495100
@<TRIPOS>BOND
     1    1    7 1   
     2    1   15 1   
     3    1   16 2   
     4    2    7 3   
     5    3    4 2   
     6    3   17 1   
     7    3   26 1   
     8    4    8 1   
     9    4   12 1   
    10    5    8 ar  
    11    5   18 ar  
    12    5   27 1   
    13    6    8 ar  
    14    6   20 ar  
    15    6   28 1   
    16    9   11 ar  
    17    9   23 ar  
    18    9   29 1   
    19   10   22 ar  
    20   10   23 ar  
    21   10   30 1   
    22   11   21 ar  
    23   11   38 1   
    24   12   13 2   
    25   12   16 1   
    26   13   14 1   
    27   13   17 1   
    28   14   15 1   
    29   14   31 1   
    30   15   25 2   
    31   16   24 1   
    32   18   19 ar  
    33   18   32 1   
    34   19   20 ar  
    35   19   21 1   
    36   20   33 1   
    37   21   22 ar  
    38   22   34 1   
    39   23   35 1   
    40   24   37 1   
    41   36   38 1   
@<TRIPOS>SUBSTRUCTURE
     1 32J         1 TEMP              0 ****  ****    0 ROOT
