@<TRIPOS>MOLECULE
32K
   60    63     1     0     0
SMALL
bcc


@<TRIPOS>ATOM
      1 C1          0.0640   -0.2900   -0.2880 c3        1 32K     -0.025900
      2 C2          1.5390   -0.3080   -0.2940 cc        1 32K     -0.276400
      3 C3          2.2840   -0.2740    0.8490 cd        1 32K      0.053600
      4 N4          3.6680   -0.2850    0.8500 n         1 32K     -0.363000
      5 C5          4.3660   -0.2950   -0.3850 c         1 32K      0.805500
      6 O6          5.6140   -0.2710   -0.4520 o         1 32K     -0.641500
      7 N7          3.6160   -0.3400   -1.5740 n         1 32K     -0.589500
      8 C8          2.2120   -0.3530   -1.6020 c         1 32K      0.718700
      9 O9          1.6380   -0.4040   -2.7040 o         1 32K     -0.628500
     10 C10         4.3940   -0.2380    2.1190 c3        1 32K      0.113700
     11 C11         5.3620   -1.4130    2.3170 c3        1 32K     -0.096400
     12 C12         5.9860   -1.3080    3.6930 c3        1 32K     -0.076400
     13 C13         6.6520    0.0500    3.9070 c3        1 32K      0.160800
     14 N14         5.7600    1.1660    3.6280 n3        1 32K     -0.722600
     15 C15         5.1790    1.0930    2.2970 c3        1 32K      0.155800
     16 C16         6.3630    2.4710    3.8850 c3        1 32K      0.237100
     17 C17         6.7500    2.6930    5.3160 ca        1 32K     -0.118300
     18 C18         8.0210    2.3220    5.7710 ca        1 32K     -0.147000
     19 C19         8.3900    2.5350    7.0920 ca        1 32K     -0.109000
     20 C20         7.5130    3.1290    8.0120 ca        1 32K     -0.114600
     21 C21         6.2470    3.5220    7.5580 ca        1 32K      0.081100
     22 C22         5.8590    3.2960    6.2160 ca        1 32K      0.078100
     23 O23         4.5610    3.5580    5.7890 os        1 32K     -0.333900
     24 C24         4.2950    4.9440    5.5890 c3        1 32K      0.113700
     25 O25         5.2600    4.0010    8.4200 os        1 32K     -0.229200
     26 C26         5.4110    5.2900    8.9020 ca        1 32K      0.212100
     27 C27         4.6160    5.6050   10.0220 ca        1 32K     -0.135000
     28 C28         4.5980    6.9130   10.4890 ca        1 32K     -0.102000
     29 C29         5.3500    7.9110    9.8650 ca        1 32K     -0.180000
     30 C30         6.1430    7.5760    8.7670 ca        1 32K      0.055400
     31 C31         6.1890    6.2720    8.2710 ca        1 32K     -0.190000
     32 CL          7.0720    8.7910    8.0030 cl        1 32K     -0.136400
     33 C33         7.9900    3.2840    9.4570 c         1 32K      0.913200
     34 O34         9.0790    2.7210    9.7580 o         1 32K     -0.812300
     35 O35         7.2830    3.9560   10.2530 o         1 32K     -0.812300
     36 H1         -0.3390   -0.5120    0.7300 hc        1 32K      0.047367
     37 H2         -0.3310   -1.0490   -1.0090 hc        1 32K      0.047367
     38 H3         -0.3090    0.7150   -0.6090 hc        1 32K      0.047367
     39 H4          1.8020   -0.2380    1.8460 h4        1 32K      0.169000
     40 H5          4.1280   -0.3530   -2.4290 hn        1 32K      0.347500
     41 H6          3.6130   -0.2930    2.9380 h1        1 32K      0.077700
     42 H7          6.1610   -1.3810    1.5300 hc        1 32K      0.057200
     43 H8          4.8180   -2.3860    2.2190 hc        1 32K      0.057200
     44 H9          6.7640   -2.1050    3.8120 hc        1 32K      0.049700
     45 H10         5.2040   -1.4720    4.4790 hc        1 32K      0.049700
     46 H11         7.5840    0.0960    3.2690 h1        1 32K      0.046200
     47 H12         6.9680    0.1360    4.9860 h1        1 32K      0.046200
     48 H14         5.9560    1.1630    1.4790 h1        1 32K      0.046700
     49 H15         4.4670    1.9580    2.1810 h1        1 32K      0.046700
     50 H16         5.5970    3.2520    3.6020 h1        1 32K      0.033700
     51 H17         7.2770    2.6290    3.2360 h1        1 32K      0.033700
     52 H18         8.7270    1.8540    5.0690 ha        1 32K      0.116000
     53 H19         9.3830    2.2280    7.4650 ha        1 32K      0.167000
     54 H20         3.2020    4.9790    5.3610 h1        1 32K      0.033700
     55 H21         4.5280    5.5320    6.5110 h1        1 32K      0.033700
     56 H22         4.8910    5.3290    4.7250 h1        1 32K      0.033700
     57 H23         4.0560    4.8040   10.5220 ha        1 32K      0.150000
     58 H24         3.9920    7.1660   11.3710 ha        1 32K      0.120000
     59 H25         5.3280    8.9400   10.2470 ha        1 32K      0.128000
     60 H26         6.8460    6.0020    7.4330 ha        1 32K      0.155000
@<TRIPOS>BOND
     1    1    2 1   
     2    1   36 1   
     3    1   37 1   
     4    1   38 1   
     5    2    3 2   
     6    2    8 1   
     7    3    4 1   
     8    3   39 1   
     9    4    5 1   
    10    4   10 1   
    11    5    6 2   
    12    5    7 1   
    13    7    8 1   
    14    7   40 1   
    15    8    9 2   
    16   10   11 1   
    17   10   15 1   
    18   10   41 1   
    19   11   12 1   
    20   11   42 1   
    21   11   43 1   
    22   12   13 1   
    23   12   44 1   
    24   12   45 1   
    25   13   14 1   
    26   13   46 1   
    27   13   47 1   
    28   14   15 1   
    29   14   16 1   
    30   15   48 1   
    31   15   49 1   
    32   16   17 1   
    33   16   50 1   
    34   16   51 1   
    35   17   18 ar  
    36   17   22 ar  
    37   18   19 ar  
    38   18   52 1   
    39   19   20 ar  
    40   19   53 1   
    41   20   21 ar  
    42   20   33 1   
    43   21   22 ar  
    44   21   25 1   
    45   22   23 1   
    46   23   24 1   
    47   24   54 1   
    48   24   55 1   
    49   24   56 1   
    50   25   26 1   
    51   26   27 ar  
    52   26   31 ar  
    53   27   28 ar  
    54   27   57 1   
    55   28   29 ar  
    56   28   58 1   
    57   29   30 ar  
    58   29   59 1   
    59   30   31 ar  
    60   30   32 1   
    61   31   60 1   
    62   33   34 1   
    63   33   35 1   
@<TRIPOS>SUBSTRUCTURE
     1 32K         1 TEMP              0 ****  ****    0 ROOT
