@<TRIPOS>MOLECULE
32K
   60    63     1     0     0
SMALL
bcc


@<TRIPOS>ATOM
      1 C1          0.0690   -0.2810   -0.2930 c3        1 32K     -0.025900
      2 C2          1.5440   -0.3030   -0.2970 cc        1 32K     -0.276400
      3 C3          2.2870   -0.2700    0.8470 cd        1 32K      0.053600
      4 N4          3.6710   -0.2840    0.8500 n         1 32K     -0.363000
      5 C5          4.3710   -0.2960   -0.3840 c         1 32K      0.805500
      6 O6          5.6190   -0.2750   -0.4500 o         1 32K     -0.641500
      7 N7          3.6220   -0.3400   -1.5740 n         1 32K     -0.589500
      8 C8          2.2190   -0.3510   -1.6040 c         1 32K      0.718700
      9 O9          1.6460   -0.4020   -2.7080 o         1 32K     -0.628500
     10 C10         4.3950   -0.2380    2.1200 c3        1 32K      0.113700
     11 C11         5.3610   -1.4140    2.3200 c3        1 32K     -0.096400
     12 C12         5.9820   -1.3100    3.6960 c3        1 32K     -0.076400
     13 C13         6.6510    0.0460    3.9110 c3        1 32K      0.160800
     14 N14         5.7620    1.1640    3.6300 n3        1 32K     -0.722600
     15 C15         5.1830    1.0920    2.2980 c3        1 32K      0.155800
     16 C16         6.3670    2.4670    3.8880 c3        1 32K      0.237100
     17 C17         6.7500    2.6900    5.3190 ca        1 32K     -0.118300
     18 C18         8.0190    2.3160    5.7790 ca        1 32K     -0.147000
     19 C19         8.3850    2.5300    7.1010 ca        1 32K     -0.109000
     20 C20         7.5060    3.1260    8.0170 ca        1 32K     -0.114600
     21 C21         6.2430    3.5210    7.5590 ca        1 32K      0.081100
     22 C22         5.8580    3.2950    6.2160 ca        1 32K      0.078100
     23 O23         4.5620    3.5610    5.7850 os        1 32K     -0.333900
     24 C24         4.3010    4.9470    5.5830 c3        1 32K      0.113700
     25 O25         5.2540    4.0040    8.4180 os        1 32K     -0.229200
     26 C26         5.4070    5.2930    8.9000 ca        1 32K      0.212100
     27 C27         4.6090    5.6100   10.0170 ca        1 32K     -0.135000
     28 C28         4.5920    6.9180   10.4840 ca        1 32K     -0.102000
     29 C29         5.3490    7.9140    9.8610 ca        1 32K     -0.180000
     30 C30         6.1450    7.5770    8.7660 ca        1 32K      0.055400
     31 C31         6.1890    6.2720    8.2710 ca        1 32K     -0.190000
     32 CL          7.0790    8.7890    8.0040 cl        1 32K     -0.136400
     33 C33         7.9790    3.2800    9.4640 c         1 32K      0.913200
     34 O34         9.0660    2.7150    9.7690 o         1 32K     -0.812300
     35 O35         7.2710    3.9540   10.2570 o         1 32K     -0.812300
     36 H1         -0.3370   -0.5050    0.7240 hc        1 32K      0.047367
     37 H2         -0.3010    0.7260   -0.6130 hc        1 32K      0.047367
     38 H3         -0.3270   -1.0380   -1.0170 hc        1 32K      0.047367
     39 H4          1.8030   -0.2320    1.8430 h4        1 32K      0.169000
     40 H5          4.1360   -0.3560   -2.4290 hn        1 32K      0.347500
     41 H6          3.6120   -0.2910    2.9380 h1        1 32K      0.077700
     42 H7          4.8140   -2.3870    2.2220 hc        1 32K      0.057200
     43 H8          6.1610   -1.3850    1.5340 hc        1 32K      0.057200
     44 H9          5.1990   -1.4720    4.4820 hc        1 32K      0.049700
     45 H10         6.7580   -2.1100    3.8170 hc        1 32K      0.049700
     46 H11         7.5840    0.0900    3.2740 h1        1 32K      0.046200
     47 H12         6.9650    0.1320    4.9900 h1        1 32K      0.046200
     48 H14         5.9610    1.1590    1.4820 h1        1 32K      0.046200
     49 H15         4.4730    1.9580    2.1810 h1        1 32K      0.046200
     50 H16         7.2830    2.6230    3.2410 h1        1 32K      0.033700
     51 H17         5.6040    3.2500    3.6020 h1        1 32K      0.033700
     52 H18         8.7260    1.8460    5.0790 ha        1 32K      0.116000
     53 H19         9.3760    2.2200    7.4770 ha        1 32K      0.167000
     54 H20         3.2080    4.9850    5.3510 h1        1 32K      0.033700
     55 H21         4.9010    5.3300    4.7210 h1        1 32K      0.033700
     56 H22         4.5320    5.5360    6.5050 h1        1 32K      0.033700
     57 H23         4.0450    4.8110   10.5160 ha        1 32K      0.150000
     58 H24         3.9840    7.1730   11.3640 ha        1 32K      0.120000
     59 H25         5.3280    8.9440   10.2420 ha        1 32K      0.128000
     60 H26         6.8480    6.0000    7.4350 ha        1 32K      0.155000
@<TRIPOS>BOND
     1    1    2 1   
     2    1   36 1   
     3    1   37 1   
     4    1   38 1   
     5    2    3 2   
     6    2    8 1   
     7    3    4 1   
     8    3   39 1   
     9    4    5 1   
    10    4   10 1   
    11    5    6 2   
    12    5    7 1   
    13    7    8 1   
    14    7   40 1   
    15    8    9 2   
    16   10   11 1   
    17   10   15 1   
    18   10   41 1   
    19   11   12 1   
    20   11   42 1   
    21   11   43 1   
    22   12   13 1   
    23   12   44 1   
    24   12   45 1   
    25   13   14 1   
    26   13   46 1   
    27   13   47 1   
    28   14   15 1   
    29   14   16 1   
    30   15   48 1   
    31   15   49 1   
    32   16   17 1   
    33   16   50 1   
    34   16   51 1   
    35   17   18 ar  
    36   17   22 ar  
    37   18   19 ar  
    38   18   52 1   
    39   19   20 ar  
    40   19   53 1   
    41   20   21 ar  
    42   20   33 1   
    43   21   22 ar  
    44   21   25 1   
    45   22   23 1   
    46   23   24 1   
    47   24   54 1   
    48   24   55 1   
    49   24   56 1   
    50   25   26 1   
    51   26   27 ar  
    52   26   31 ar  
    53   27   28 ar  
    54   27   57 1   
    55   28   29 ar  
    56   28   58 1   
    57   29   30 ar  
    58   29   59 1   
    59   30   31 ar  
    60   30   32 1   
    61   31   60 1   
    62   33   34 1   
    63   33   35 1   
@<TRIPOS>SUBSTRUCTURE
     1 32K         1 TEMP              0 ****  ****    0 ROOT
