@<TRIPOS>MOLECULE
32M
   69    68     1     0     0
SMALL
bcc


@<TRIPOS>ATOM
      1 CAA        -0.9800    2.7720    0.2980 c3        1 32M     -0.093100
      2 CAC         0.1470    1.7810    0.1660 c3        1 32M     -0.080400
      3 CAE         1.1590    1.9380    1.2810 c3        1 32M     -0.079400
      4 CAF         2.2890    0.9410    1.1440 c3        1 32M     -0.079400
      5 CAG         3.3000    1.0990    2.2600 c3        1 32M     -0.078400
      6 CAH         4.4290    0.1010    2.1230 c3        1 32M     -0.078400
      7 CAI         5.4370    0.2620    3.2400 c3        1 32M     -0.083400
      8 CAK         6.5620   -0.7460    3.0890 c3        1 32M      0.132400
      9 OAW         7.4560   -0.5250    4.1780 os        1 32M     -0.428600
     10 CAM         8.5770   -1.4050    4.1410 c3        1 32M      0.126400
     11 CAO         9.3540   -1.1700    5.4330 c3        1 32M      0.127400
     12 OAY         9.1940   -2.3480    6.2210 os        1 32M     -0.429600
     13 CAQ         9.7330   -2.1970    7.5330 c3        1 32M      0.127400
     14 CAS         9.6470   -3.5680    8.1960 c3        1 32M      0.127400
     15 OBA        10.9780   -4.0760    8.2520 os        1 32M     -0.429600
     16 CAU        11.0220   -5.4280    8.7010 c3        1 32M      0.127400
     17 CAT        12.4950   -5.7780    8.8800 c3        1 32M      0.127400
     18 OAZ        12.7300   -5.8400   10.2850 os        1 32M     -0.429600
     19 CAR        14.1120   -5.9990   10.5950 c3        1 32M      0.127400
     20 CAP        14.1950   -6.2240   12.1010 c3        1 32M      0.127400
     21 OAX        14.4880   -7.6070   12.2890 os        1 32M     -0.428600
     22 CAN        14.4260   -7.9910   13.6610 c3        1 32M      0.127400
     23 CAL        14.9180   -9.4330   13.7290 c3        1 32M      0.128400
     24 OAV        16.2190   -9.3900   14.3130 os        1 32M     -0.438600
     25 CAJ        16.8710  -10.6580   14.2780 c3        1 32M      0.087400
     26 CAD        18.2090  -10.4660   14.9850 c3        1 32M      0.131400
     27 OAB        18.0380  -10.1840   16.3580 oh        1 32M     -0.600800
     28 H1         -0.5910    3.8190    0.2610 hc        1 32M      0.032700
     29 H2         -1.5160    2.6330    1.2680 hc        1 32M      0.032700
     30 H3         -1.7140    2.6390   -0.5330 hc        1 32M      0.032700
     31 H4         -0.2650    0.7370    0.1800 hc        1 32M      0.038700
     32 H5          0.6570    1.9200   -0.8240 hc        1 32M      0.038700
     33 H6          1.5740    2.9810    1.2670 hc        1 32M      0.039700
     34 H7          0.6510    1.7980    2.2720 hc        1 32M      0.039700
     35 H8          1.8740   -0.1020    1.1580 hc        1 32M      0.039200
     36 H9          2.7970    1.0810    0.1540 hc        1 32M      0.039200
     37 H10         3.7150    2.1410    2.2470 hc        1 32M      0.041700
     38 H11         2.7920    0.9590    3.2510 hc        1 32M      0.041700
     39 H12         4.0140   -0.9410    2.1370 hc        1 32M      0.040200
     40 H13         4.9370    0.2420    1.1330 hc        1 32M      0.040200
     41 H14         4.9400    0.1160    4.2350 hc        1 32M      0.054700
     42 H15         5.8630    1.2990    3.2310 hc        1 32M      0.054700
     43 H16         6.1700   -1.7970    3.1300 h1        1 32M      0.025700
     44 H17         7.1070   -0.5980    2.1190 h1        1 32M      0.025700
     45 H18         8.2330   -2.4720    4.0720 h1        1 32M      0.041700
     46 H19         9.2130   -1.1570    3.2510 h1        1 32M      0.041700
     47 H20         8.9520   -0.2770    5.9820 h1        1 32M      0.043200
     48 H21        10.4440   -1.0190    5.2150 h1        1 32M      0.043200
     49 H22         9.1180   -1.4490    8.1000 h1        1 32M      0.043700
     50 H23        10.7970   -1.8470    7.4770 h1        1 32M      0.043700
     51 H24         9.2460   -3.4730    9.2400 h1        1 32M      0.043700
     52 H25         8.9920   -4.2580    7.6010 h1        1 32M      0.043700
     53 H26        10.4670   -5.5340    9.6710 h1        1 32M      0.043200
     54 H27        10.5540   -6.0890    7.9240 h1        1 32M      0.043200
     55 H28        13.1500   -4.9970    8.4100 h1        1 32M      0.043700
     56 H29        12.7180   -6.7800    8.4260 h1        1 32M      0.043700
     57 H30        14.6650   -5.0660   10.3090 h1        1 32M      0.043700
     58 H31        14.5370   -6.8750   10.0370 h1        1 32M      0.043700
     59 H32        15.0240   -5.6100   12.5430 h1        1 32M      0.044200
     60 H33        13.2230   -5.9610   12.5970 h1        1 32M      0.044200
     61 H34        15.0740   -7.3180   14.2820 h1        1 32M      0.043200
     62 H35        13.3630   -7.9240   14.0150 h1        1 32M      0.043200
     63 H36        14.2440  -10.0470   14.3820 h1        1 32M      0.045200
     64 H37        14.9680   -9.8860   12.7040 h1        1 32M      0.045200
     65 H38        17.0290  -10.9760   13.2150 h1        1 32M      0.039200
     66 H39        16.2450  -11.4200   14.8130 h1        1 32M      0.039200
     67 H40        18.7890   -9.6410   14.4910 h1        1 32M      0.053200
     68 H41        18.7970  -11.4210   14.9530 h1        1 32M      0.053200
     69 H42        17.4770   -9.4000   16.4160 ho        1 32M      0.412000
@<TRIPOS>BOND
     1    1    2 1   
     2    1   28 1   
     3    1   29 1   
     4    1   30 1   
     5    2    3 1   
     6    2   31 1   
     7    2   32 1   
     8    3    4 1   
     9    3   33 1   
    10    3   34 1   
    11    4    5 1   
    12    4   35 1   
    13    4   36 1   
    14    5    6 1   
    15    5   37 1   
    16    5   38 1   
    17    6    7 1   
    18    6   39 1   
    19    6   40 1   
    20    7    8 1   
    21    7   41 1   
    22    7   42 1   
    23    8    9 1   
    24    8   43 1   
    25    8   44 1   
    26    9   10 1   
    27   10   11 1   
    28   10   45 1   
    29   10   46 1   
    30   11   12 1   
    31   11   47 1   
    32   11   48 1   
    33   12   13 1   
    34   13   14 1   
    35   13   49 1   
    36   13   50 1   
    37   14   15 1   
    38   14   51 1   
    39   14   52 1   
    40   15   16 1   
    41   16   17 1   
    42   16   53 1   
    43   16   54 1   
    44   17   18 1   
    45   17   55 1   
    46   17   56 1   
    47   18   19 1   
    48   19   20 1   
    49   19   57 1   
    50   19   58 1   
    51   20   21 1   
    52   20   59 1   
    53   20   60 1   
    54   21   22 1   
    55   22   23 1   
    56   22   61 1   
    57   22   62 1   
    58   23   24 1   
    59   23   63 1   
    60   23   64 1   
    61   24   25 1   
    62   25   26 1   
    63   25   65 1   
    64   25   66 1   
    65   26   27 1   
    66   26   67 1   
    67   26   68 1   
    68   27   69 1   
@<TRIPOS>SUBSTRUCTURE
     1 32M         1 TEMP              0 ****  ****    0 ROOT
