@<TRIPOS>MOLECULE
32P
   77    79     1     0     0
SMALL
bcc


@<TRIPOS>ATOM
      1 C1         -0.2070   -0.3470   -0.1080 ca        1 32P     -0.116500
      2 C2          0.9730   -0.8530   -0.6530 ca        1 32P     -0.085000
      3 C3          2.0360   -1.2000    0.1830 ca        1 32P     -0.116500
      4 C4          1.9210   -1.0410    1.5620 ca        1 32P     -0.106500
      5 C5          0.7400   -0.5220    2.1110 ca        1 32P     -0.149300
      6 C6         -0.3280   -0.1850    1.2720 ca        1 32P     -0.106500
      7 S1          1.4380    0.9370    4.1510 s6        1 32P      1.605500
      8 O1          1.1260    0.6600    5.8540 os        1 32P     -0.499800
      9 O2          0.8150    2.1540    3.9980 o         1 32P     -0.634300
     10 O3          2.8040    0.8450    4.1380 o         1 32P     -0.634300
     11 C7          0.6030   -0.3910    3.5870 c3        1 32P     -0.278300
     12 C8          1.4570    1.4590    6.8840 ca        1 32P      0.268100
     13 C9          1.3390    2.8610    6.8080 ca        1 32P     -0.208000
     14 C10         1.6410    3.6170    7.9420 ca        1 32P      0.106100
     15 C11         2.0550    3.0280    9.1430 ca        1 32P     -0.093000
     16 C12         2.1930    1.6310    9.1860 ca        1 32P     -0.133600
     17 C13         1.8920    0.8410    8.0760 ca        1 32P     -0.140000
     18 O4          1.6810    5.0130    7.9160 os        1 32P     -0.294900
     19 C14         2.6530    1.0580   10.4640 c         1 32P      0.561700
     20 C15         0.6630    5.6700    7.1850 c3        1 32P      0.079400
     21 C16        -0.1260    6.5090    8.1840 c         1 32P      0.516100
     22 N1         -0.7820    7.7670    7.6160 ny        1 32P     -0.686800
     23 O5         -0.3060    6.3010    9.3680 o         1 32P     -0.369100
     24 N2          3.4180   -0.2340   10.4060 ny        1 32P     -0.685800
     25 O6          2.5080    1.5520   11.5760 o         1 32P     -0.414100
     26 C17         2.5410   -1.4500   10.7220 c3        1 32P      0.218800
     27 C18         2.2420   -1.5410   12.2100 c3        1 32P     -0.131100
     28 C19        -1.7810   12.5990    8.5370 c3        1 32P     -0.108400
     29 C20        -1.0100   11.3580    8.9540 c3        1 32P     -0.076400
     30 C21        -1.3080   10.2000    8.0160 c3        1 32P     -0.106400
     31 C22        -0.5310    8.9670    8.4710 c3        1 32P      0.101800
     32 N3         -2.1810   15.0050    9.1730 nz        1 32P     -0.837600
     33 C23        -1.4640   13.7380    9.5020 c3        1 32P      0.099800
     34 C24         2.6790   -3.3320    9.0840 ca        1 32P     -0.073500
     35 C25         3.2200   -2.6740   10.1980 ca        1 32P     -0.224300
     36 C26         4.3570   -3.1960   10.8290 ca        1 32P     -0.073500
     37 C27         4.9550   -4.3580   10.3600 ca        1 32P     -0.159500
     38 C28         4.4050   -5.0200    9.2410 ca        1 32P      0.199900
     39 C29         3.2590   -4.4990    8.6040 ca        1 32P     -0.159500
     40 F1          4.9740   -6.1490    8.7800 f         1 32P     -0.093900
     41 H1         -1.0500   -0.0830   -0.7660 ha        1 32P      0.157500
     42 H2          1.0640   -0.9870   -1.7440 ha        1 32P      0.160000
     43 H3          2.9660   -1.6070   -0.2450 ha        1 32P      0.157500
     44 H4          2.7590   -1.3250    2.2180 ha        1 32P      0.140500
     45 H6         -1.2680    0.1990    1.6950 ha        1 32P      0.140500
     46 H71        -0.4940   -0.3530    3.8500 h1        1 32P      0.155200
     47 H72         0.9610   -1.3520    4.0600 h1        1 32P      0.155200
     48 H9          1.0340    3.3340    5.8590 ha        1 32P      0.190000
     49 H11         2.2830    3.6500   10.0240 ha        1 32P      0.185000
     50 H13         1.9540   -0.2580    8.0900 ha        1 32P      0.162000
     51 H151       -0.0520    4.9720    6.6680 h1        1 32P      0.119200
     52 H152        1.1960    6.3240    6.4380 h1        1 32P      0.119200
     53 HN1        -0.4350    7.9420    6.6680 hn        1 32P      0.460800
     54 HN2         4.1760   -0.2050   11.1010 hn        1 32P      0.464800
     55 H17         1.5730   -1.2750   10.1600 hx        1 32P      0.096700
     56 H181        1.5560   -2.4130   12.3690 hc        1 32P      0.085700
     57 H182        3.1660   -1.7150   12.8130 hc        1 32P      0.085700
     58 H183        1.7340   -0.6160   12.5800 hc        1 32P      0.085700
     59 H191       -1.4950   12.8840    7.4890 hc        1 32P      0.077700
     60 H192       -2.8820   12.3770    8.5430 hc        1 32P      0.077700
     61 H201       -1.2920   11.0740   10.0040 hc        1 32P      0.073200
     62 H202        0.0910   11.5760    8.9460 hc        1 32P      0.073200
     63 H211       -1.0160   10.4820    6.9690 hc        1 32P      0.075200
     64 H212       -2.4110    9.9900    8.0200 hc        1 32P      0.075200
     65 H221        0.5780    9.1770    8.4490 hx        1 32P      0.120700
     66 H222       -0.8220    8.6970    9.5300 hx        1 32P      0.120700
     67 HN31       -1.9260   15.3300    8.2330 hn        1 32P      0.472133
     68 HN32       -1.9290   15.7330    9.8540 hn        1 32P      0.472133
     69 H231       -1.7560   13.4450   10.5530 hx        1 32P      0.120200
     70 H232       -0.3560   13.9610    9.4850 hx        1 32P      0.120200
     71 H24         1.7760   -2.9390    8.5910 ha        1 32P      0.140500
     72 H26         4.7820   -2.7000   11.7160 ha        1 32P      0.140500
     73 H27         5.8460   -4.7780   10.8560 ha        1 32P      0.181000
     74 H29         2.8300   -5.0300    7.7390 ha        1 32P      0.181000
     75 H12        -1.7960    7.6060    7.5610 hn        1 32P      0.460800
     76 H22         3.8280   -0.3580    9.4740 hn        1 32P      0.464800
     77 H33        -3.1970   14.8620    9.2040 hn        1 32P      0.472133
@<TRIPOS>BOND
     1    1    2 ar  
     2    1    6 ar  
     3    1   41 1   
     4    2    3 ar  
     5    2   42 1   
     6    3    4 ar  
     7    3   43 1   
     8    4    5 ar  
     9    4   44 1   
    10    5    6 ar  
    11    5   11 1   
    12    6   45 1   
    13    7    8 1   
    14    7    9 2   
    15    7   10 2   
    16    7   11 1   
    17    8   12 1   
    18   11   46 1   
    19   11   47 1   
    20   12   13 ar  
    21   12   17 ar  
    22   13   14 ar  
    23   13   48 1   
    24   14   15 ar  
    25   14   18 1   
    26   15   16 ar  
    27   15   49 1   
    28   16   17 ar  
    29   16   19 1   
    30   17   50 1   
    31   18   20 1   
    32   19   24 1   
    33   19   25 2   
    34   20   21 1   
    35   20   51 1   
    36   20   52 1   
    37   21   22 1   
    38   21   23 2   
    39   22   31 1   
    40   22   53 1   
    41   22   75 1   
    42   24   26 1   
    43   24   54 1   
    44   24   76 1   
    45   26   27 1   
    46   26   35 1   
    47   26   55 1   
    48   27   56 1   
    49   27   57 1   
    50   27   58 1   
    51   28   29 1   
    52   28   33 1   
    53   28   59 1   
    54   28   60 1   
    55   29   30 1   
    56   29   61 1   
    57   29   62 1   
    58   30   31 1   
    59   30   63 1   
    60   30   64 1   
    61   31   65 1   
    62   31   66 1   
    63   32   33 1   
    64   32   67 1   
    65   32   68 1   
    66   32   77 1   
    67   33   69 1   
    68   33   70 1   
    69   34   35 ar  
    70   34   39 ar  
    71   34   71 1   
    72   35   36 ar  
    73   36   37 ar  
    74   36   72 1   
    75   37   38 ar  
    76   37   73 1   
    77   38   39 ar  
    78   38   40 1   
    79   39   74 1   
@<TRIPOS>SUBSTRUCTURE
     1 32P         1 TEMP              0 ****  ****    0 ROOT
