@<TRIPOS>MOLECULE
32P
   74    66     1     0     0
SMALL
bcc


@<TRIPOS>ATOM
      1 C1         -4.0180   -4.5370   -7.2050 c1        1 32P     -0.123167
      2 C2         -5.2610   -5.1210   -6.9910 c1        1 32P     -0.123167
      3 C3         -6.2050   -4.4780   -6.2070 c1        1 32P     -0.123167
      4 C4         -5.9050   -3.2290   -5.6260 c1        1 32P     -0.104000
      5 C5         -4.6770   -2.6510   -5.8370 c1        1 32P     -0.090000
      6 C6         -3.7200   -3.3060   -6.6320 c1        1 32P     -0.123167
      7 S1         -3.2870   -1.3610   -3.9010 ss        1 32P      2.812000
      8 O1         -2.0540   -0.4650   -4.1180 o         1 32P     -0.659000
      9 O2         -2.8830   -2.8030   -3.6400 o         1 32P     -0.921500
     10 O3         -3.9900   -1.0180   -2.6150 o         1 32P     -0.921500
     11 C7         -4.3890   -1.2440   -5.2990 c2        1 32P     -0.819000
     12 C8         -1.0640   -0.4710   -3.0510 c2        1 32P      0.137000
     13 C9         -0.6740    0.7470   -2.4410 c2        1 32P     -0.196000
     14 C10         0.3410    0.7530   -1.4810 c1        1 32P      0.091000
     15 C11         0.9650   -0.4240   -1.1280 c1        1 32P     -0.149000
     16 C12         0.5740   -1.6520   -1.7410 c1        1 32P     -0.066000
     17 C13        -0.4330   -1.6610   -2.6930 c1        1 32P     -0.150000
     18 O4          0.7540    2.0170   -0.8540 os        1 32P     -0.222000
     19 C14         1.2470   -2.9990   -1.2910 c2        1 32P      0.350000
     20 C15        -0.3170    2.7590   -0.2840 c3        1 32P     -0.051000
     21 C16         0.2540    3.9110    0.5680 c2        1 32P      0.297000
     22 N1         -0.4500    4.3600    1.7170 n         1 32P     -0.351000
     23 O5          1.3070    4.4630    0.2330 o         1 32P     -0.362000
     24 N2          2.2710   -2.9840   -0.2460 n         1 32P     -0.375000
     25 O6          0.9980   -4.0160   -1.8710 o         1 32P     -0.356000
     26 C17         2.6700   -4.2000    0.3780 c3        1 32P      0.063000
     27 C18         1.8240   -4.4350    1.6260 c3        1 32P     -0.222000
     28 C19        -0.3050    6.3040    6.2800 c3        1 32P     -0.161000
     29 C20         0.3070    6.3290    4.8750 c3        1 32P     -0.156000
     30 C21        -0.5000    5.3740    3.9300 c3        1 32P     -0.186000
     31 C22         0.0630    5.4650    2.5000 c3        1 32P     -0.037000
     32 N3         -0.1160    7.3120    8.5020 n3        1 32P     -0.349000
     33 C23         0.5400    7.2010    7.2220 c3        1 32P     -0.078000
     34 C24         5.0260   -4.9760    0.1840 c1        1 32P     -0.123167
     35 C25         4.1170   -4.1160    0.7610 c1        1 32P     -0.114000
     36 C26         4.5200   -3.2610    1.7770 c1        1 32P     -0.101000
     37 C27         5.8320   -3.2730    2.2080 c1        1 32P     -0.167000
     38 C28         6.7460   -4.1420    1.6240 c1        1 32P      0.093000
     39 C29         6.3430   -4.9880    0.6180 c1        1 32P     -0.123167
     40 F1          8.0620   -4.0930    1.9820 f         1 32P     -0.105000
     41 H1         -3.3530   -4.9910   -7.7570 ha        1 32P      0.144500
     42 H2         -5.4720   -6.0020   -7.4020 ha        1 32P      0.144500
     43 H3         -7.0790   -4.8910   -6.0570 ha        1 32P      0.144500
     44 H4         -6.5730   -2.7730   -5.0720 ha        1 32P      0.138000
     45 H6         -2.8420   -2.8940   -6.7830 ha        1 32P      0.144500
     46 H71        -5.2250   -0.8230   -5.0220 ha        1 32P      0.178500
     47 H72        -3.9670   -0.7020   -6.0070 ha        1 32P      0.178500
     48 H9         -1.1240    1.5970   -2.6950 ha        1 32P      0.160000
     49 H11         1.6860   -0.4180   -0.4460 ha        1 32P      0.156000
     50 H13        -0.7020   -2.5050   -3.1150 ha        1 32P      0.182000
     51 H151       -0.8740    3.1240   -0.9950 h1        1 32P      0.116500
     52 H152       -0.8540    2.1740    0.2810 h1        1 32P      0.116500
     53 HN1        -1.2100    3.9340    1.9780 hn        1 32P      0.231000
     54 HN2         2.7230   -2.2050   -0.0610 hn        1 32P      0.226000
     55 H17         2.5460   -4.9250   -0.2300 h1        1 32P      0.135000
     56 H181        2.3980   -4.3720    2.4310 hc        1 32P      0.085333
     57 H182        1.1250   -3.7640    1.6740 hc        1 32P      0.085333
     58 H183        1.4190   -5.3280    1.5820 hc        1 32P      0.085333
     59 H191       -1.2230    6.6410    6.2420 hc        1 32P      0.087000
     60 H192       -0.3090    5.3810    6.6210 hc        1 32P      0.087000
     61 H201        0.2740    7.2460    4.5200 hc        1 32P      0.083000
     62 H202        1.2490    6.0280    4.9210 hc        1 32P      0.083000
     63 H211       -0.4210    4.4540    4.2520 hc        1 32P      0.086500
     64 H212       -1.4410    5.6380    3.9260 hc        1 32P      0.086500
     65 H221        1.0330    5.4200    2.5290 h1        1 32P      0.104500
     66 H222       -0.2110    6.3070    2.0950 h1        1 32P      0.104500
     67 HN31       -0.3200    8.1680    8.6600 hn        1 32P      0.144000
     68 HN32        0.4420    7.0050    9.1590 hn        1 32P      0.144000
     69 H231        0.6340    8.0970    6.8230 h1        1 32P      0.063500
     70 H232        1.4460    6.7940    7.3460 h1        1 32P      0.063500
     71 H24         4.7300   -5.6010   -0.5590 ha        1 32P      0.144500
     72 H26         3.8630   -2.6360    2.1940 ha        1 32P      0.134000
     73 H27         6.1220   -2.6610    2.9350 ha        1 32P      0.149000
     74 H29         6.9960   -5.6080    0.2010 ha        1 32P      0.144500
@<TRIPOS>BOND
     1    1    6 1   
     2    1   41 1   
     3    2    3 1   
     4    2   42 1   
     5    3   43 1   
     6    4    5 1   
     7    4   44 1   
     8    5   11 1   
     9    6   45 1   
    10    7    9 1   
    11    7   10 1   
    12    8   12 1   
    13   11   46 1   
    14   11   47 1   
    15   12   13 1   
    16   12   17 1   
    17   13   14 1   
    18   13   48 1   
    19   14   18 1   
    20   15   16 1   
    21   15   49 1   
    22   16   19 1   
    23   17   50 1   
    24   18   20 1   
    25   19   24 1   
    26   19   25 1   
    27   20   21 1   
    28   20   51 1   
    29   20   52 1   
    30   21   22 1   
    31   21   23 1   
    32   22   31 1   
    33   22   53 1   
    34   24   26 1   
    35   24   54 1   
    36   26   27 1   
    37   26   35 1   
    38   26   55 1   
    39   27   56 1   
    40   27   57 1   
    41   27   58 1   
    42   28   29 1   
    43   28   33 1   
    44   28   59 1   
    45   28   60 1   
    46   29   30 1   
    47   29   61 1   
    48   29   62 1   
    49   30   31 1   
    50   30   63 1   
    51   30   64 1   
    52   31   65 1   
    53   31   66 1   
    54   32   33 1   
    55   32   67 1   
    56   32   68 1   
    57   33   69 1   
    58   33   70 1   
    59   34   39 1   
    60   34   71 1   
    61   35   36 1   
    62   36   72 1   
    63   37   38 1   
    64   37   73 1   
    65   38   40 1   
    66   39   74 1   
@<TRIPOS>SUBSTRUCTURE
     1 32P         1 TEMP              0 ****  ****    0 ROOT
