@<TRIPOS>MOLECULE
32P
   74    76     1     0     0
SMALL
bcc


@<TRIPOS>ATOM
      1 C1         -8.5970    1.1290   -1.8000 ca        1 32P     -0.124500
      2 C2         -8.5590    2.3180   -1.0710 ca        1 32P     -0.114000
      3 C3         -7.3480    2.7840   -0.5620 ca        1 32P     -0.124500
      4 C4         -6.1730    2.0660   -0.7820 ca        1 32P     -0.113500
      5 C5         -6.2070    0.8710   -1.5100 ca        1 32P     -0.093300
      6 C6         -7.4260    0.4080   -2.0240 ca        1 32P     -0.113500
      7 S1         -4.8930   -1.3670   -0.9500 s6        1 32P      1.592500
      8 O1         -3.4640   -1.9980   -1.6240 os        1 32P     -0.484800
      9 O2         -5.8320   -2.2630   -1.4030 o         1 32P     -0.633300
     10 O3         -4.6060   -1.2200    0.3900 o         1 32P     -0.633300
     11 C7         -4.9580    0.1130   -1.7690 c3        1 32P     -0.301300
     12 C8         -2.1940   -1.6270   -1.2880 ca        1 32P      0.183100
     13 C9         -1.7430   -1.7260    0.0380 ca        1 32P     -0.226000
     14 C10        -0.4120   -1.3980    0.3070 ca        1 32P      0.144100
     15 C11         0.4660   -0.9940   -0.7160 ca        1 32P     -0.152000
     16 C12        -0.0120   -0.9130   -2.0230 ca        1 32P     -0.090600
     17 C13        -1.3410   -1.2200   -2.3250 ca        1 32P     -0.135000
     18 O4          0.1570   -1.4250    1.5670 os        1 32P     -0.337900
     19 C14         0.8760   -0.4640   -3.1390 c         1 32P      0.675700
     20 C15        -0.6800   -1.9230    2.6150 c3        1 32P      0.049400
     21 C16         0.1150   -1.9400    3.9220 c         1 32P      0.662100
     22 N1          1.0830   -0.9890    4.1240 n         1 32P     -0.557900
     23 O5         -0.1810   -2.7920    4.7840 o         1 32P     -0.606100
     24 N2          2.1280   -1.0380   -3.2050 n         1 32P     -0.562900
     25 O6          0.4830    0.3650   -3.9850 o         1 32P     -0.602100
     26 C17         3.1190   -0.6410   -4.1830 c3        1 32P      0.146000
     27 C18         3.6080   -1.8210   -5.0290 c3        1 32P     -0.104100
     28 C19         2.9710    1.8570    7.7390 c3        1 32P     -0.082400
     29 C20         2.8360    0.4690    7.1510 c3        1 32P     -0.078400
     30 C21         1.9740    0.4900    5.9070 c3        1 32P     -0.097400
     31 C22         1.8680   -0.9210    5.3270 c3        1 32P      0.089000
     32 N3          3.9710    3.0990    9.6420 n3        1 32P     -0.916800
     33 C23         3.8330    1.8130    9.0000 c3        1 32P      0.159800
     34 C24         4.5960    1.3690   -3.8360 ca        1 32P     -0.094000
     35 C25         4.3100    0.0330   -3.5370 ca        1 32P     -0.122300
     36 C26         5.1290   -0.6650   -2.6430 ca        1 32P     -0.094000
     37 C27         6.2280   -0.0470   -2.0560 ca        1 32P     -0.166000
     38 C28         6.5130    1.2960   -2.3670 ca        1 32P      0.128900
     39 C29         5.6920    2.0050   -3.2620 ca        1 32P     -0.166000
     40 F1          7.5820    1.9060   -1.8010 f         1 32P     -0.139900
     41 H1         -9.5520    0.7580   -2.2030 ha        1 32P      0.140000
     42 H2         -9.4850    2.8860   -0.8970 ha        1 32P      0.138000
     43 H3         -7.3150    3.7210    0.0130 ha        1 32P      0.140000
     44 H4         -5.2190    2.4420   -0.3820 ha        1 32P      0.144500
     45 H6         -7.4580   -0.5350   -2.5940 ha        1 32P      0.144500
     46 H71        -4.0750    0.7620   -1.5100 h1        1 32P      0.137200
     47 H72        -4.8730   -0.0460   -2.8830 h1        1 32P      0.137200
     48 H9         -2.4400   -2.0420    0.8300 ha        1 32P      0.178000
     49 H11         1.5040   -0.7330   -0.4610 ha        1 32P      0.156000
     50 H13        -1.7110   -1.1500   -3.3590 ha        1 32P      0.169000
     51 H151       -1.5730   -1.2550    2.7440 h1        1 32P      0.080700
     52 H152       -1.0060   -2.9710    2.3820 h1        1 32P      0.080700
     53 HN1         1.3130   -0.3710    3.3830 hn        1 32P      0.321500
     54 HN2         2.4170   -1.6610   -2.4900 hn        1 32P      0.313500
     55 H17         2.6200    0.1020   -4.8820 h1        1 32P      0.095700
     56 H181        4.0920   -2.6020   -4.3960 hc        1 32P      0.046033
     57 H182        2.7560   -2.2840   -5.5820 hc        1 32P      0.046033
     58 H183        4.3560   -1.4460   -5.7680 hc        1 32P      0.046033
     59 H191        3.4330    2.5440    6.9810 hc        1 32P      0.048200
     60 H192        1.9560    2.2650    7.9850 hc        1 32P      0.048200
     61 H201        2.3810   -0.2200    7.9120 hc        1 32P      0.044200
     62 H202        3.8520    0.0630    6.9010 hc        1 32P      0.044200
     63 H211        2.4200    1.1880    5.1510 hc        1 32P      0.046700
     64 H212        0.9540    0.8800    6.1610 hc        1 32P      0.046700
     65 H221        1.4110   -1.6070    6.0980 h1        1 32P      0.059200
     66 H222        2.9090   -1.2980    5.1040 h1        1 32P      0.059200
     67 HN31        4.6220    3.0410   10.3990 hn        1 32P      0.348800
     68 HN32        4.2800    3.7950    8.9940 hn        1 32P      0.348800
     69 H231        3.3500    1.1180    9.7450 h1        1 32P      0.024700
     70 H232        4.8320    1.3580    8.7230 h1        1 32P      0.024700
     71 H24         3.9480    1.9280   -4.5310 ha        1 32P      0.140000
     72 H26         4.9100   -1.7170   -2.4040 ha        1 32P      0.140000
     73 H27         6.8750   -0.5940   -1.3550 ha        1 32P      0.150500
     74 H29         5.9210    3.0540   -3.4980 ha        1 32P      0.150500
@<TRIPOS>BOND
     1    1    2 ar  
     2    1    6 ar  
     3    1   41 1   
     4    2    3 ar  
     5    2   42 1   
     6    3    4 ar  
     7    3   43 1   
     8    4    5 ar  
     9    4   44 1   
    10    5    6 ar  
    11    5   11 1   
    12    6   45 1   
    13    7    8 1   
    14    7    9 2   
    15    7   10 2   
    16    7   11 1   
    17    8   12 1   
    18   11   46 1   
    19   11   47 1   
    20   12   13 ar  
    21   12   17 ar  
    22   13   14 ar  
    23   13   48 1   
    24   14   15 ar  
    25   14   18 1   
    26   15   16 ar  
    27   15   49 1   
    28   16   17 ar  
    29   16   19 1   
    30   17   50 1   
    31   18   20 1   
    32   19   24 1   
    33   19   25 2   
    34   20   21 1   
    35   20   51 1   
    36   20   52 1   
    37   21   22 1   
    38   21   23 2   
    39   22   31 1   
    40   22   53 1   
    41   24   26 1   
    42   24   54 1   
    43   26   27 1   
    44   26   35 1   
    45   26   55 1   
    46   27   56 1   
    47   27   57 1   
    48   27   58 1   
    49   28   29 1   
    50   28   33 1   
    51   28   59 1   
    52   28   60 1   
    53   29   30 1   
    54   29   61 1   
    55   29   62 1   
    56   30   31 1   
    57   30   63 1   
    58   30   64 1   
    59   31   65 1   
    60   31   66 1   
    61   32   33 1   
    62   32   67 1   
    63   32   68 1   
    64   33   69 1   
    65   33   70 1   
    66   34   35 ar  
    67   34   39 ar  
    68   34   71 1   
    69   35   36 ar  
    70   36   37 ar  
    71   36   72 1   
    72   37   38 ar  
    73   37   73 1   
    74   38   39 ar  
    75   38   40 1   
    76   39   74 1   
@<TRIPOS>SUBSTRUCTURE
     1 32P         1 TEMP              0 ****  ****    0 ROOT
