@<TRIPOS>MOLECULE
32P
   77    79     1     0     0
SMALL
bcc


@<TRIPOS>ATOM
      1 C1         -0.2290   -0.4080   -0.0700 ca        1 32P     -0.116500
      2 C2          0.9490   -0.9220   -0.6130 ca        1 32P     -0.085000
      3 C3          2.0120   -1.2630    0.2260 ca        1 32P     -0.116500
      4 C4          1.8990   -1.0930    1.6040 ca        1 32P     -0.106500
      5 C5          0.7190   -0.5670    2.1500 ca        1 32P     -0.149300
      6 C6         -0.3490   -0.2340    1.3080 ca        1 32P     -0.106500
      7 S1          1.4240    0.9070    4.1760 s6        1 32P      1.605500
      8 O1          1.1110    0.6450    5.8820 os        1 32P     -0.499800
      9 O2          0.8030    2.1250    4.0140 o         1 32P     -0.634300
     10 O3          2.7890    0.8110    4.1640 o         1 32P     -0.634300
     11 C7          0.5840   -0.4220    3.6240 c3        1 32P     -0.278300
     12 C8          1.4450    1.4520    6.9040 ca        1 32P      0.268100
     13 C9          1.3330    2.8540    6.8170 ca        1 32P     -0.208000
     14 C10         1.6370    3.6180    7.9440 ca        1 32P      0.106100
     15 C11         2.0480    3.0380    9.1510 ca        1 32P     -0.093000
     16 C12         2.1800    1.6420    9.2060 ca        1 32P     -0.133600
     17 C13         1.8760    0.8430    8.1020 ca        1 32P     -0.140000
     18 O4          1.6830    5.0150    7.9060 os        1 32P     -0.294900
     19 C14         2.6370    1.0780   10.4890 c         1 32P      0.561700
     20 C15         0.6680    5.6690    7.1700 c3        1 32P      0.079400
     21 C16        -0.1190    6.5170    8.1620 c         1 32P      0.516100
     22 N1         -0.7780    7.7690    7.5840 n4        1 32P     -0.686800
     23 O5         -0.2980    6.3200    9.3480 o         1 32P     -0.369100
     24 N2          3.3980   -0.2170   10.4430 n4        1 32P     -0.685800
     25 O6          2.4920    1.5810   11.5970 o         1 32P     -0.414100
     26 C17         2.5180   -1.4280   10.7680 c3        1 32P      0.218800
     27 C18         2.2170   -1.5060   12.2560 c3        1 32P     -0.131100
     28 C19        -1.7310   12.6210    8.4430 c3        1 32P     -0.108400
     29 C20        -0.9590   11.3830    8.8650 c3        1 32P     -0.076400
     30 C21        -1.2810   10.2120    7.9530 c3        1 32P     -0.106400
     31 C22        -0.5030    8.9820    8.4140 c3        1 32P      0.101800
     32 N3         -2.1060   15.0400    9.0470 n4        1 32P     -0.837600
     33 C23        -1.3900   13.7750    9.3820 c3        1 32P      0.099800
     34 C24         2.6510   -3.3240    9.1460 ca        1 32P     -0.073500
     35 C25         3.1930   -2.6590   10.2550 ca        1 32P     -0.224300
     36 C26         4.3280   -3.1790   10.8910 ca        1 32P     -0.073500
     37 C27         4.9230   -4.3460   10.4320 ca        1 32P     -0.159500
     38 C28         4.3720   -5.0160    9.3180 ca        1 32P      0.199900
     39 C29         3.2270   -4.4970    8.6760 ca        1 32P     -0.159500
     40 F1          4.9380   -6.1510    8.8670 f         1 32P     -0.093900
     41 H1         -1.0730   -0.1480   -0.7300 ha        1 32P      0.157500
     42 H2          1.0390   -1.0650   -1.7020 ha        1 32P      0.160000
     43 H3          2.9410   -1.6750   -0.2000 ha        1 32P      0.157500
     44 H4          2.7370   -1.3730    2.2610 ha        1 32P      0.140500
     45 H6         -1.2880    0.1550    1.7290 ha        1 32P      0.140500
     46 H71         0.9400   -1.3810    4.1040 h1        1 32P      0.155200
     47 H72        -0.5130   -0.3800    3.8880 h1        1 32P      0.155200
     48 H9          1.0310    3.3200    5.8630 ha        1 32P      0.190000
     49 H11         2.2780    3.6670   10.0270 ha        1 32P      0.185000
     50 H13         1.9340   -0.2560    8.1270 ha        1 32P      0.162000
     51 H151       -0.0480    4.9700    6.6570 h1        1 32P      0.119700
     52 H152        1.2040    6.3170    6.4200 h1        1 32P      0.119700
     53 HN1        -0.4470    7.9260    6.6270 hn        1 32P      0.460300
     54 HN2         3.8090   -0.3510    9.5120 hn        1 32P      0.464800
     55 H17         1.5500   -1.2550   10.2040 hx        1 32P      0.096700
     56 H181        1.7120   -0.5770   12.6190 hc        1 32P      0.085700
     57 H182        1.5280   -2.3740   12.4220 hc        1 32P      0.085700
     58 H183        3.1400   -1.6780   12.8620 hc        1 32P      0.085700
     59 H191       -2.8330   12.4060    8.4740 hc        1 32P      0.077700
     60 H192       -1.4640   12.8880    7.3850 hc        1 32P      0.077700
     61 H201        0.1430   11.5960    8.8320 hc        1 32P      0.073200
     62 H202       -1.2220   11.1190    9.9250 hc        1 32P      0.073200
     63 H211       -2.3860   10.0090    7.9820 hc        1 32P      0.075700
     64 H212       -1.0080   10.4740    6.8950 hc        1 32P      0.075700
     65 H221        0.6060    9.1840    8.3660 hx        1 32P      0.120700
     66 H222       -0.7750    8.7310    9.4820 hx        1 32P      0.120700
     67 HN31       -1.8370   15.7780    9.7110 hn        1 32P      0.472133
     68 HN32       -3.1220   14.9030    9.1000 hn        1 32P      0.472133
     69 H231       -0.2810   13.9910    9.3410 hx        1 32P      0.120200
     70 H232       -1.6620   13.5010   10.4440 hx        1 32P      0.120200
     71 H24         1.7500   -2.9320    8.6480 ha        1 32P      0.140500
     72 H26         4.7540   -2.6760   11.7740 ha        1 32P      0.140500
     73 H27         5.8120   -4.7640   10.9320 ha        1 32P      0.181000
     74 H29         2.7980   -5.0340    7.8150 ha        1 32P      0.181000
     75 H12        -1.7940    7.6140    7.5500 hn        1 32P      0.460300
     76 H22         4.1560   -0.1850   11.1370 hn        1 32P      0.464800
     77 H33        -1.8680   15.3480    8.0970 hn        1 32P      0.472133
@<TRIPOS>BOND
     1    1    2 ar  
     2    1    6 ar  
     3    1   41 1   
     4    2    3 ar  
     5    2   42 1   
     6    3    4 ar  
     7    3   43 1   
     8    4    5 ar  
     9    4   44 1   
    10    5    6 ar  
    11    5   11 1   
    12    6   45 1   
    13    7    8 1   
    14    7    9 2   
    15    7   10 2   
    16    7   11 1   
    17    8   12 1   
    18   11   46 1   
    19   11   47 1   
    20   12   13 ar  
    21   12   17 ar  
    22   13   14 ar  
    23   13   48 1   
    24   14   15 ar  
    25   14   18 1   
    26   15   16 ar  
    27   15   49 1   
    28   16   17 ar  
    29   16   19 1   
    30   17   50 1   
    31   18   20 1   
    32   19   24 1   
    33   19   25 2   
    34   20   21 1   
    35   20   51 1   
    36   20   52 1   
    37   21   22 1   
    38   21   23 2   
    39   22   31 1   
    40   22   53 1   
    41   22   75 1   
    42   24   26 1   
    43   24   54 1   
    44   24   76 1   
    45   26   27 1   
    46   26   35 1   
    47   26   55 1   
    48   27   56 1   
    49   27   57 1   
    50   27   58 1   
    51   28   29 1   
    52   28   33 1   
    53   28   59 1   
    54   28   60 1   
    55   29   30 1   
    56   29   61 1   
    57   29   62 1   
    58   30   31 1   
    59   30   63 1   
    60   30   64 1   
    61   31   65 1   
    62   31   66 1   
    63   32   33 1   
    64   32   67 1   
    65   32   68 1   
    66   32   77 1   
    67   33   69 1   
    68   33   70 1   
    69   34   35 ar  
    70   34   39 ar  
    71   34   71 1   
    72   35   36 ar  
    73   36   37 ar  
    74   36   72 1   
    75   37   38 ar  
    76   37   73 1   
    77   38   39 ar  
    78   38   40 1   
    79   39   74 1   
@<TRIPOS>SUBSTRUCTURE
     1 32P         1 TEMP              0 ****  ****    0 ROOT
