@<TRIPOS>MOLECULE
32P
   77    79     1     0     0
SMALL
bcc


@<TRIPOS>ATOM
      1 C1         -0.3010   -0.4050   -0.0660 ca        1 32P     -0.116500
      2 C2          0.8710   -0.9200   -0.6210 ca        1 32P     -0.085000
      3 C3          1.9420   -1.2630    0.2070 ca        1 32P     -0.116500
      4 C4          1.8430   -1.0930    1.5860 ca        1 32P     -0.106500
      5 C5          0.6700   -0.5660    2.1440 ca        1 32P     -0.149300
      6 C6         -0.4060   -0.2310    1.3130 ca        1 32P     -0.106500
      7 S1          1.3970    0.9070    4.1630 s6        1 32P      1.605500
      8 O1          1.1010    0.6450    5.8720 os        1 32P     -0.499800
      9 O2          0.7750    2.1260    4.0070 o         1 32P     -0.634300
     10 O3          2.7610    0.8100    4.1370 o         1 32P     -0.634300
     11 C7          0.5500   -0.4220    3.6190 c3        1 32P     -0.278300
     12 C8          1.4470    1.4520    6.8910 ca        1 32P      0.268100
     13 C9          1.3320    2.8540    6.8060 ca        1 32P     -0.208000
     14 C10         1.6480    3.6180    7.9290 ca        1 32P      0.107100
     15 C11         2.0740    3.0380    9.1310 ca        1 32P     -0.093000
     16 C12         2.2080    1.6420    9.1840 ca        1 32P     -0.133600
     17 C13         1.8920    0.8430    8.0840 ca        1 32P     -0.140000
     18 O4          1.6920    5.0140    7.8910 os        1 32P     -0.295900
     19 C14         2.6800    1.0780   10.4620 c         1 32P      0.561700
     20 C15         0.6680    5.6670    7.1650 c3        1 32P      0.079400
     21 C16        -0.1050    6.5200    8.1640 c         1 32P      0.516100
     22 N1         -0.7560    7.7790    7.5930 n4        1 32P     -0.686800
     23 O5         -0.2760    6.3220    9.3510 o         1 32P     -0.369100
     24 N2          3.4410   -0.2160   10.4060 n4        1 32P     -0.685800
     25 O6          2.5490    1.5810   11.5710 o         1 32P     -0.414100
     26 C17         2.5660   -1.4280   10.7410 c3        1 32P      0.218800
     27 C18         2.2820   -1.5060   12.2330 c3        1 32P     -0.131100
     28 C19        -1.7390   12.6180    8.4950 c3        1 32P     -0.108400
     29 C20        -0.9740   11.3750    8.9180 c3        1 32P     -0.076400
     30 C21        -1.2740   10.2160    7.9830 c3        1 32P     -0.106400
     31 C22        -0.5020    8.9820    8.4440 c3        1 32P      0.101800
     32 N3         -2.1310   15.0270    9.1230 n4        1 32P     -0.837600
     33 C23        -1.4200   13.7590    9.4560 c3        1 32P      0.099800
     34 C24         2.6810   -3.3240    9.1170 ca        1 32P     -0.073500
     35 C25         3.2350   -2.6580   10.2200 ca        1 32P     -0.224300
     36 C26         4.3780   -3.1780   10.8430 ca        1 32P     -0.073500
     37 C27         4.9680   -4.3460   10.3770 ca        1 32P     -0.159500
     38 C28         4.4040   -5.0150    9.2690 ca        1 32P      0.199900
     39 C29         3.2520   -4.4960    8.6400 ca        1 32P     -0.159500
     40 F1          4.9660   -6.1490    8.8110 f         1 32P     -0.093900
     41 H1         -1.1510   -0.1440   -0.7170 ha        1 32P      0.157500
     42 H2          0.9490   -1.0640   -1.7110 ha        1 32P      0.160000
     43 H3          2.8660   -1.6770   -0.2290 ha        1 32P      0.157500
     44 H4          2.6880   -1.3740    2.2350 ha        1 32P      0.140500
     45 H6         -1.3400    0.1590    1.7450 ha        1 32P      0.140500
     46 H71        -0.5430   -0.3790    3.8950 h1        1 32P      0.155200
     47 H72         0.9110   -1.3810    4.0960 h1        1 32P      0.155200
     48 H9          1.0180    3.3200    5.8560 ha        1 32P      0.190000
     49 H11         2.3140    3.6670   10.0050 ha        1 32P      0.185000
     50 H13         1.9520   -0.2560    8.1070 ha        1 32P      0.162000
     51 H151        1.1960    6.3110    6.4050 h1        1 32P      0.119200
     52 H152       -0.0560    4.9670    6.6650 h1        1 32P      0.119200
     53 HN1        -1.7710    7.6210    7.5370 hn        1 32P      0.460800
     54 HN2         3.8410   -0.3500    9.4700 hn        1 32P      0.464800
     55 H17         1.5910   -1.2550   10.1880 hx        1 32P      0.096700
     56 H181        3.2130   -1.6780   12.8280 hc        1 32P      0.085700
     57 H182        1.5960   -2.3760   12.4060 hc        1 32P      0.085700
     58 H183        1.7810   -0.5770   12.6010 hc        1 32P      0.085700
     59 H191       -1.4500   12.8980    7.4460 hc        1 32P      0.077700
     60 H192       -2.8410   12.4000    8.5010 hc        1 32P      0.077700
     61 H201       -1.2580   11.0960    9.9680 hc        1 32P      0.073200
     62 H202        0.1280   11.5900    8.9110 hc        1 32P      0.073200
     63 H211       -0.9800   10.4920    6.9350 hc        1 32P      0.075200
     64 H212       -2.3780   10.0090    7.9870 hc        1 32P      0.075200
     65 H221        0.6070    9.1870    8.4220 hx        1 32P      0.120700
     66 H222       -0.7950    8.7160    9.5030 hx        1 32P      0.120700
     67 HN31       -3.1480   14.8880    9.1520 hn        1 32P      0.472133
     68 HN32       -1.8730   15.3480    8.1820 hn        1 32P      0.472133
     69 H231       -0.3110   13.9770    9.4410 hx        1 32P      0.120200
     70 H232       -1.7140   13.4710   10.5090 hx        1 32P      0.120200
     71 H24         1.7740   -2.9320    8.6300 ha        1 32P      0.140500
     72 H26         4.8140   -2.6750   11.7210 ha        1 32P      0.140500
     73 H27         5.8630   -4.7630   10.8660 ha        1 32P      0.181000
     74 H29         2.8130   -5.0330    7.7840 ha        1 32P      0.181000
     75 H12        -0.4080    7.9500    6.6440 hn        1 32P      0.460800
     76 H22         4.2080   -0.1850   11.0920 hn        1 32P      0.464800
     77 H33        -1.8780   15.7570    9.8020 hn        1 32P      0.472133
@<TRIPOS>BOND
     1    1    2 ar  
     2    1    6 ar  
     3    1   41 1   
     4    2    3 ar  
     5    2   42 1   
     6    3    4 ar  
     7    3   43 1   
     8    4    5 ar  
     9    4   44 1   
    10    5    6 ar  
    11    5   11 1   
    12    6   45 1   
    13    7    8 1   
    14    7    9 2   
    15    7   10 2   
    16    7   11 1   
    17    8   12 1   
    18   11   46 1   
    19   11   47 1   
    20   12   13 ar  
    21   12   17 ar  
    22   13   14 ar  
    23   13   48 1   
    24   14   15 ar  
    25   14   18 1   
    26   15   16 ar  
    27   15   49 1   
    28   16   17 ar  
    29   16   19 1   
    30   17   50 1   
    31   18   20 1   
    32   19   24 1   
    33   19   25 2   
    34   20   21 1   
    35   20   51 1   
    36   20   52 1   
    37   21   22 1   
    38   21   23 2   
    39   22   31 1   
    40   22   53 1   
    41   22   75 1   
    42   24   26 1   
    43   24   54 1   
    44   24   76 1   
    45   26   27 1   
    46   26   35 1   
    47   26   55 1   
    48   27   56 1   
    49   27   57 1   
    50   27   58 1   
    51   28   29 1   
    52   28   33 1   
    53   28   59 1   
    54   28   60 1   
    55   29   30 1   
    56   29   61 1   
    57   29   62 1   
    58   30   31 1   
    59   30   63 1   
    60   30   64 1   
    61   31   65 1   
    62   31   66 1   
    63   32   33 1   
    64   32   67 1   
    65   32   68 1   
    66   32   77 1   
    67   33   69 1   
    68   33   70 1   
    69   34   35 ar  
    70   34   39 ar  
    71   34   71 1   
    72   35   36 ar  
    73   36   37 ar  
    74   36   72 1   
    75   37   38 ar  
    76   37   73 1   
    77   38   39 ar  
    78   38   40 1   
    79   39   74 1   
@<TRIPOS>SUBSTRUCTURE
     1 32P         1 TEMP              0 ****  ****    0 ROOT
