@<TRIPOS>MOLECULE
32Q
   53    53     1     0     0
SMALL
bcc


@<TRIPOS>ATOM
      1 P11        -0.8760    1.0000   -0.7220 p5        1 32Q      2.955000
      2 C1          0.2860   -1.3940   -0.7120 c3        1 32Q     -0.153000
      3 C3          0.6150    0.0960   -0.6310 c3        1 32Q     -0.712000
      4 C6          0.6800   -1.9940   -2.0300 cx        1 32Q      0.067000
      5 C8          0.9580   -3.4490   -2.1330 ca        1 32Q     -0.183500
      6 N10         1.2960    0.5170    0.5700 n3        1 32Q     -0.319000
      7 C11        -0.2940    2.5030   -1.0310 c3        1 32Q     -0.959000
      8 O12        -1.5760    0.6320    0.5270 o         1 32Q     -1.207000
      9 C13        -2.8800    2.0930   -1.1580 cu        1 32Q     -0.595000
     10 O13        -1.3430    0.2800   -2.1050 oh        1 32Q     -0.851000
     11 C15        -3.4590    2.9890   -2.1040 cu        1 32Q      0.277000
     12 C16        -3.4670    4.4390    5.4020 c1        1 32Q     -0.084000
     13 C17         1.0840   -4.7960   -2.2100 ca        1 32Q     -0.067000
     14 C18        -3.8090    3.3820    4.5110 c2        1 32Q     -0.286000
     15 C19         2.4250   -5.2380   -2.4190 ca        1 32Q     -0.143500
     16 C20         3.4900   -4.3560   -2.5250 ca        1 32Q     -0.143500
     17 C21         3.3230   -2.9420   -2.4320 ca        1 32Q     -0.067000
     18 C22         2.0390   -2.5530   -2.2400 ca        1 32Q     -0.183500
     19 O23        -3.2170    3.5390   -0.8650 os        1 32Q     -0.358000
     20 O24        -3.8790    3.5300   -3.1140 o         1 32Q     -0.357000
     21 N24        -5.4790   -0.9180    2.0540 n3        1 32Q     -0.329000
     22 C36        -3.1270    3.3050    3.3130 c2        1 32Q      0.106000
     23 C37        -3.3820    2.2440    2.3390 c3        1 32Q     -0.242000
     24 C38        -4.4570    1.2950    2.7020 c2        1 32Q     -0.012000
     25 C39        -5.1080    1.4040    3.8930 c2        1 32Q     -0.253000
     26 C40        -4.8280    2.4300    4.8380 c1        1 32Q     -0.119000
     27 H11        -2.9130   -0.8520   -0.7420 ha        1 32Q      0.000500
     28 H12         0.7860   -1.9670    0.1160 hc        1 32Q      0.096000
     29 H31        -0.8240   -1.5330   -0.5780 hc        1 32Q      0.096000
     30 H61         1.2870    0.3540   -1.4970 h1        1 32Q      0.116000
     31 H62         0.1780   -1.4940   -2.8920 hc        1 32Q      0.148000
     32 H101        0.6820    0.3690    1.3530 hn        1 32Q      0.139500
     33 H102        2.1320   -0.0150    0.7150 hn        1 32Q      0.139500
     34 H111        0.7960    2.6500   -0.8490 hc        1 32Q      0.135000
     35 H112       -0.4830    2.8070   -2.0900 hc        1 32Q      0.135000
     36 H131       -0.8230    3.2730   -0.4100 hc        1 32Q      0.135000
     37 H132       -2.1370    0.5970   -2.5220 ho        1 32Q      0.269000
     38 H161       -3.5170    1.3910   -0.5960 h4        1 32Q      0.097000
     39 H162       -4.0640    4.4820    6.3280 ha        1 32Q      0.039000
     40 H171       -3.3630   -1.3570   -0.8220 ha        1 32Q      0.000500
     41 H191        0.2600   -5.5120   -2.1240 ha        1 32Q      0.135500
     42 H201        2.6060   -6.3190   -2.4960 ha        1 32Q      0.119000
     43 H211        4.5040   -4.7480   -2.6840 ha        1 32Q      0.119000
     44 H221        4.1810   -2.2660   -2.5140 ha        1 32Q      0.135500
     45 H231       -3.7240   -0.1000    1.2440 h1        1 32Q      0.143000
     46 H232       -5.2770    0.7470    0.8170 h1        1 32Q      0.143000
     47 H241       -4.9830   -1.4460    2.7460 hn        1 32Q      0.135500
     48 H242       -6.3690   -0.6560    2.4350 hn        1 32Q      0.135500
     49 H361       -2.4210    1.6410    2.1710 hc        1 32Q      0.222500
     50 H371       -2.3530    4.0500    3.0520 ha        1 32Q      0.148000
     51 H391       -3.5700    2.6890    1.3090 hc        1 32Q      0.222500
     52 H401       -5.9010    0.6930    4.1770 ha        1 32Q      0.122000
     53 C23        -4.7240    0.2430    1.6650 c3        1 32Q     -0.105000
@<TRIPOS>BOND
     1    1    3 1   
     2    1    7 1   
     3    1    8 1   
     4    1   10 1   
     5    2    3 1   
     6    2    4 1   
     7    2   28 1   
     8    2   29 1   
     9    3    6 1   
    10    3   30 1   
    11    4    5 1   
    12    4   18 1   
    13    4   31 1   
    14    5   13 1   
    15    5   18 1   
    16    6   32 1   
    17    6   33 1   
    18    7   34 1   
    19    7   35 1   
    20    7   36 1   
    21    9   11 1   
    22    9   19 1   
    23    9   38 1   
    24   10   37 1   
    25   11   19 1   
    26   11   20 1   
    27   12   14 1   
    28   12   39 1   
    29   13   15 1   
    30   13   41 1   
    31   14   22 1   
    32   14   26 1   
    33   15   16 1   
    34   15   42 1   
    35   16   17 1   
    36   16   43 1   
    37   17   18 1   
    38   17   44 1   
    39   21   47 1   
    40   21   48 1   
    41   21   53 1   
    42   22   23 1   
    43   22   50 1   
    44   23   24 1   
    45   23   49 1   
    46   23   51 1   
    47   24   25 1   
    48   24   53 1   
    49   25   26 1   
    50   25   52 1   
    51   27   40 1   
    52   45   53 1   
    53   46   53 1   
@<TRIPOS>SUBSTRUCTURE
     1 32Q         1 TEMP              0 ****  ****    0 ROOT
