@<TRIPOS>MOLECULE
32Q
   54    55     1     0     0
SMALL
bcc


@<TRIPOS>ATOM
      1 P11        -2.7820   -0.6340   -1.6360 p5        1 32Q      2.001000
      2 C1          2.4300   -2.4230   -0.1000 cx        1 32Q     -0.212500
      3 C3          1.3870   -2.5390   -1.1700 cx        1 32Q     -0.212500
      4 C6          2.5920   -1.6620   -1.3930 cx        1 32Q     -0.141000
      5 C8          3.6410   -2.0360   -2.3520 ca        1 32Q     -0.042000
      6 N10        -0.5960   -2.4980    1.5630 n9        1 32Q     -0.394000
      7 C11        -2.1160    0.2010   -2.8800 c3        1 32Q     -0.954000
      8 O12        -4.1280   -1.1510   -1.8510 o         1 32Q     -0.797000
      9 C13        -3.3500    0.0320    1.7660 c2        1 32Q     -0.236000
     10 O13        -1.8230   -1.1820   -0.6670 o         1 32Q     -0.797000
     11 C15        -3.6610    0.8600    0.6310 c2        1 32Q      0.429000
     12 C16        -3.8890    0.3300    2.9800 c2        1 32Q      0.008000
     13 C17         3.3240   -2.6750   -3.5570 ca        1 32Q     -0.125000
     14 C18        -4.7450    1.4670    3.1140 c2        1 32Q     -0.207000
     15 C19         4.3270   -2.9940   -4.4700 ca        1 32Q     -0.130500
     16 C20         5.6560   -2.6780   -4.1900 ca        1 32Q     -0.134000
     17 C21         5.9800   -2.0400   -2.9920 ca        1 32Q     -0.130500
     18 C22         4.9790   -1.7180   -2.0780 ca        1 32Q     -0.125000
     19 O23        -4.4750    1.9650    0.7730 os        1 32Q     -0.130000
     20 O24        -3.2830    0.8100   -0.5750 os        1 32Q     -0.517000
     21 N24        -6.5710    5.7610    4.1870 n8        1 32Q     -0.342000
     22 C36        -5.3640    1.8150    4.4220 c3        1 32Q     -0.175000
     23 C37        -6.4110    2.8190    4.4050 c1        1 32Q     -0.038000
     24 C38        -6.8450    3.4480    3.1660 c3        1 32Q     -0.215000
     25 C39        -5.8470    3.4640    2.0130 c3        1 32Q     -0.143000
     26 C40        -5.0010    2.2420    2.0150 c2        1 32Q      0.087000
     27 H11         1.3050   -3.4870   -1.7310 hc        1 32Q      0.119250
     28 H12         2.1960   -1.8570    0.8200 hc        1 32Q      0.119250
     29 H31         3.0930   -3.2820    0.1010 hc        1 32Q      0.119250
     30 H61         0.3990   -2.0590   -1.0180 hc        1 32Q      0.119250
     31 H62         2.4380   -0.5620   -1.3610 hc        1 32Q      0.124000
     32 H101        0.1770   -3.0630    1.2670 hn        1 32Q      0.131000
     33 H102       -1.4180   -2.8480    1.1090 hn        1 32Q      0.131000
     34 H111       -2.5860   -0.0540   -3.8610 hc        1 32Q      0.141333
     35 H112       -2.2370    1.3070   -2.7600 hc        1 32Q      0.141333
     36 H131       -1.0200    0.0170   -2.9830 hc        1 32Q      0.141333
     37 H161       -2.6650   -0.8240    1.6030 ha        1 32Q      0.234000
     38 H162       -3.6720   -0.2870    3.8680 ha        1 32Q      0.171000
     39 H171        2.2760   -2.9250   -3.7800 ha        1 32Q      0.132500
     40 H191        4.0690   -3.4970   -5.4130 ha        1 32Q      0.129000
     41 H201        6.4470   -2.9310   -4.9100 ha        1 32Q      0.129000
     42 H211        7.0270   -1.7890   -2.7680 ha        1 32Q      0.129000
     43 H221        5.2340   -1.2150   -1.1340 ha        1 32Q      0.132500
     44 H231       -7.7390    2.8120    2.8610 hc        1 32Q      0.160000
     45 H232       -8.3760    4.7620    3.9630 h1        1 32Q      0.102500
     46 H241       -7.5900    5.3470    2.4190 h1        1 32Q      0.102500
     47 H242       -5.6720    5.8910    3.7700 hn        1 32Q      0.151500
     48 H361       -4.5680    2.1830    5.1390 hc        1 32Q      0.160000
     49 H371       -5.8010    0.8870    4.9010 hc        1 32Q      0.160000
     50 H391       -6.3880    3.5540    1.0320 hc        1 32Q      0.126000
     51 H401       -5.1690    4.3580    2.0950 hc        1 32Q      0.126000
     52 C23        -7.3930    4.8720    3.4220 c3        1 32Q     -0.041000
     53 H103       -0.4430   -1.5740    1.2010 hn        1 32Q      0.131000
     54 H243       -6.4600    5.4360    5.1280 hn        1 32Q      0.151500
@<TRIPOS>BOND
     1    1    7 1   
     2    1    8 1   
     3    1   10 1   
     4    1   20 1   
     5    2    3 1   
     6    2    4 1   
     7    2   28 1   
     8    2   29 1   
     9    3    4 1   
    10    3   27 1   
    11    3   30 1   
    12    4    5 1   
    13    4   31 1   
    14    5   13 1   
    15    5   18 1   
    16    6   32 1   
    17    6   33 1   
    18    6   53 1   
    19    7   34 1   
    20    7   35 1   
    21    7   36 1   
    22    9   11 1   
    23    9   12 1   
    24    9   37 1   
    25   11   19 1   
    26   11   20 1   
    27   12   14 1   
    28   12   38 1   
    29   13   15 1   
    30   13   39 1   
    31   14   22 1   
    32   14   26 1   
    33   15   16 1   
    34   15   40 1   
    35   16   17 1   
    36   16   41 1   
    37   17   18 1   
    38   17   42 1   
    39   18   43 1   
    40   19   26 1   
    41   21   47 1   
    42   21   52 1   
    43   21   54 1   
    44   22   23 1   
    45   22   48 1   
    46   22   49 1   
    47   23   24 1   
    48   24   25 1   
    49   24   44 1   
    50   24   52 1   
    51   25   26 1   
    52   25   50 1   
    53   25   51 1   
    54   45   52 1   
    55   46   52 1   
@<TRIPOS>SUBSTRUCTURE
     1 32Q         1 TEMP              0 ****  ****    0 ROOT
