@<TRIPOS>MOLECULE
32Q
   54    53     1     0     0
SMALL
bcc


@<TRIPOS>ATOM
      1 P11        -1.1050    0.6170    0.5100 p5        1 32Q      2.707000
      2 C1          2.4100   -3.7760    0.0500 c3        1 32Q     -0.202000
      3 C3          1.3100    1.9430   -1.6860 c1        1 32Q     -0.248000
      4 C6          2.2380   -2.4840   -0.7080 c3        1 32Q     -0.154000
      5 C8          2.4230   -2.5970   -2.1670 c2        1 32Q      0.012000
      6 N10         1.8400    0.7820   -1.8690 n3        1 32Q     -0.185000
      7 C11        -1.6040    0.6350    2.0920 c3        1 32Q     -0.895000
      8 O12        -0.6830    2.0520    0.0770 oh        1 32Q     -0.907000
      9 C13        -3.0650    0.2160    2.1410 c3        1 32Q     -0.085000
     10 O13        -0.1280   -0.3920    0.0990 o         1 32Q     -1.141000
     11 C15        -3.5740    0.2030    0.7020 c2        1 32Q      0.328000
     12 C16        -3.9390    1.0330    3.0200 c2        1 32Q     -0.151000
     13 C17         2.0370   -3.8220   -2.9530 c3        1 32Q     -0.127000
     14 C18        -4.0790    2.3720    3.0440 c2        1 32Q      0.003000
     15 C19         3.0790   -4.0960   -4.0060 c2        1 32Q     -0.147000
     16 C20         3.9010   -3.1450   -4.5030 c2        1 32Q     -0.152000
     17 C21         3.6090   -1.7540   -4.1270 c2        1 32Q     -0.065000
     18 C22         2.9950   -1.6740   -2.9490 c1        1 32Q     -0.292000
     19 O23        -4.7110    0.0340    0.2820 o         1 32Q     -0.275000
     20 O24        -2.5760    0.3760   -0.2020 os        1 32Q     -0.680000
     21 N24        -9.3300    3.0530    2.9710 n3        1 32Q     -0.328000
     22 C36        -5.0840    3.0050    3.9640 c3        1 32Q     -0.178000
     23 C37        -6.4690    3.0550    3.5440 c1        1 32Q     -0.075000
     24 C38        -6.9520    2.5020    2.2980 c3        1 32Q     -0.266000
     25 C39        -2.7520    4.0510    1.5570 c1        1 32Q     -0.139000
     26 C40        -3.3520    3.2660    2.2350 c1        1 32Q     -0.187000
     27 H11         2.4240   -3.5640    1.1470 hc        1 32Q      0.074000
     28 H12         3.3670   -4.2800   -0.2250 hc        1 32Q      0.074000
     29 H31         1.5650   -4.4780   -0.1540 hc        1 32Q      0.074000
     30 H61         2.9660   -1.7230   -0.3090 hc        1 32Q      0.126000
     31 H62         1.2020   -2.0700   -0.5110 hc        1 32Q      0.126000
     32 H101        1.7020    2.8000   -2.2620 ha        1 32Q      0.077000
     33 H102        1.5010   -0.0240   -1.3650 hn        1 32Q      0.232000
     34 H111        0.0740    2.1330   -0.6260 ho        1 32Q      0.358000
     35 H112       -0.9980   -0.0480    2.7400 hc        1 32Q      0.166000
     36 H131       -1.4910    1.6560    2.5490 hc        1 32Q      0.166000
     37 H161       -3.1410   -0.8540    2.5100 hc        1 32Q      0.134000
     38 H162       -4.5600    0.4280    3.7070 ha        1 32Q      0.137000
     39 H171        1.9800   -4.6960   -2.2500 hc        1 32Q      0.121000
     40 H191        1.0350   -3.7220   -3.4510 hc        1 32Q      0.121000
     41 H201        3.1120   -5.1330   -4.3670 ha        1 32Q      0.133000
     42 H211        4.6840   -3.3500   -5.2420 ha        1 32Q      0.138000
     43 H221        3.7980   -0.9420   -4.8340 ha        1 32Q      0.146000
     44 H231       -6.3550    1.6280    1.9110 hc        1 32Q      0.123500
     45 H232       -8.7870    1.8610    1.3440 h1        1 32Q      0.089000
     46 H241       -8.4980    1.1480    2.9930 h1        1 32Q      0.089000
     47 H242       -9.0360    3.2800    3.9030 hn        1 32Q      0.145000
     48 H361       -4.7780    4.0690    4.1910 hc        1 32Q      0.149000
     49 H371       -5.0850    2.4650    4.9580 hc        1 32Q      0.149000
     50 H391       -6.8370    3.3310    1.5350 hc        1 32Q      0.123500
     51 H401       -2.2000    4.7150    0.9390 ha        1 32Q      0.237000
     52 C23        -8.4310    2.0960    2.3860 c3        1 32Q     -0.057000
     53 H103        2.5840    0.5700   -2.5080 hn        1 32Q      0.232000
     54 H243       -9.3410    3.8990    2.4340 hn        1 32Q      0.145000
@<TRIPOS>BOND
     1    1    7 1   
     2    1    8 1   
     3    1   10 1   
     4    1   20 1   
     5    2    4 1   
     6    2   27 1   
     7    2   28 1   
     8    2   29 1   
     9    3    6 1   
    10    3   32 1   
    11    4    5 1   
    12    4   30 1   
    13    4   31 1   
    14    5   13 1   
    15    5   18 1   
    16    6   33 1   
    17    6   53 1   
    18    7    9 1   
    19    7   35 1   
    20    7   36 1   
    21    8   34 1   
    22    9   11 1   
    23    9   12 1   
    24    9   37 1   
    25   11   19 1   
    26   11   20 1   
    27   12   14 1   
    28   12   38 1   
    29   13   15 1   
    30   13   39 1   
    31   13   40 1   
    32   14   22 1   
    33   14   26 1   
    34   15   16 1   
    35   15   41 1   
    36   16   17 1   
    37   16   42 1   
    38   17   18 1   
    39   17   43 1   
    40   21   47 1   
    41   21   52 1   
    42   21   54 1   
    43   22   23 1   
    44   22   48 1   
    45   22   49 1   
    46   23   24 1   
    47   24   44 1   
    48   24   50 1   
    49   24   52 1   
    50   25   26 1   
    51   25   51 1   
    52   45   52 1   
    53   46   52 1   
@<TRIPOS>SUBSTRUCTURE
     1 32Q         1 TEMP              0 ****  ****    0 ROOT
