@<TRIPOS>MOLECULE
32R
   54    53     1     0     0
SMALL
bcc


@<TRIPOS>ATOM
      1 P11        -1.5760    1.0680   -0.9020 p3        1 32R      2.564000
      2 C1          2.2140   -1.2050   -0.5200 c3        1 32R     -0.160000
      3 C3          1.9480    0.2090   -0.0070 c3        1 32R     -0.045000
      4 C6          2.0210   -1.2580   -2.0220 c3        1 32R     -0.124000
      5 C8          2.0700   -2.6320   -2.5510 c2        1 32R     -0.052000
      6 N10         2.3490    0.4170    1.3580 n8        1 32R     -0.355000
      7 C11        -1.1790    2.3640    0.0170 c3        1 32R     -0.898000
      8 O12        -0.7660    0.8640   -2.0830 o         1 32R     -1.020500
      9 C13        -1.9720    2.4220    1.3100 c3        1 32R     -0.094000
     10 O13        -2.7360    0.3170   -0.4630 o         1 32R     -1.020500
     11 C15        -1.0300    2.5280    2.4950 c2        1 32R      0.307000
     12 C16        -2.9790    3.5190    1.2930 c2        1 32R     -0.214000
     13 C17         1.7470   -2.8870   -4.0040 c3        1 32R     -0.112000
     14 C18        -4.1990    3.4470    1.8640 c2        1 32R      0.025000
     15 C19         0.8840   -4.1200   -4.1150 c2        1 32R     -0.156000
     16 C20         0.8640   -5.1020   -3.1850 c2        1 32R     -0.143000
     17 C21         1.8810   -5.0330   -2.1220 c2        1 32R     -0.095000
     18 C22         2.2430   -3.7760   -1.8940 c1        1 32R     -0.182000
     19 O23         0.1140    2.0680    2.5300 o         1 32R     -0.327000
     20 O24        -1.4260    3.1020    3.6600 oh        1 32R     -0.268000
     21 N24        -8.1870    0.8460    1.0170 n8        1 32R     -0.352000
     22 C36        -4.6900    2.2870    2.6770 c3        1 32R     -0.187000
     23 C37        -5.4540    1.2220    2.0600 c1        1 32R     -0.061000
     24 C38        -5.7510    1.1310    0.6520 c3        1 32R     -0.230000
     25 C39        -5.8770    5.4340    1.6410 c1        1 32R     -0.143000
     26 C40        -5.1010    4.5270    1.7420 c1        1 32R     -0.172000
     27 H11         0.8400    0.4310   -0.1770 h1        1 32R      0.028000
     28 H12         3.2600   -1.5190   -0.2650 hc        1 32R      0.097000
     29 H31         1.5200   -1.9310   -0.0210 hc        1 32R      0.097000
     30 H61         2.8240   -0.6490   -2.5240 hc        1 32R      0.106500
     31 H62         1.0370   -0.7880   -2.3050 hc        1 32R      0.106500
     32 H101        2.5150    0.9460   -0.6450 h1        1 32R      0.028000
     33 H102        1.9710   -0.2820    1.9650 hn        1 32R      0.157500
     34 H111       -0.0730    2.3550    0.2590 hc        1 32R      0.179000
     35 H112       -1.3040    3.3260   -0.5520 hc        1 32R      0.179000
     36 H131       -2.3100    3.4910    3.5630 ho        1 32R      0.239000
     37 H161       -2.5140    1.4310    1.4480 hc        1 32R      0.158000
     38 H162       -2.6760    4.4310    0.7510 ha        1 32R      0.143000
     39 H171        1.1830   -1.9980   -4.3930 hc        1 32R      0.113000
     40 H191        2.6590   -3.0230   -4.6430 hc        1 32R      0.113000
     41 H201        0.2770   -4.1800   -5.0280 ha        1 32R      0.131000
     42 H211        0.2140   -5.9820   -3.2500 ha        1 32R      0.136000
     43 H221        2.3250   -5.9440   -1.7160 ha        1 32R      0.152000
     44 H231       -4.8690    0.5720    0.1960 hc        1 32R      0.140000
     45 H232       -7.1950    0.2980   -0.7330 h1        1 32R      0.071000
     46 H241       -6.7980   -0.7610    0.6940 h1        1 32R      0.071000
     47 H242       -8.0380    0.9390    2.0040 hn        1 32R      0.146000
     48 H361       -5.3640    2.6810    3.5000 hc        1 32R      0.147500
     49 H371       -3.8210    1.7900    3.2040 hc        1 32R      0.147500
     50 H391       -5.8230    2.1240    0.1290 hc        1 32R      0.140000
     51 H401       -6.5710    6.2320    1.5530 ha        1 32R      0.233000
     52 C23        -7.0110    0.3030    0.3790 c3        1 32R     -0.049000
     53 H103        2.0740    1.3230    1.6810 hn        1 32R      0.157500
     54 H243       -8.9710    0.2440    0.8610 hn        1 32R      0.146000
@<TRIPOS>BOND
     1    1    7 1   
     2    1    8 1   
     3    1   10 1   
     4    2    3 1   
     5    2    4 1   
     6    2   28 1   
     7    2   29 1   
     8    3    6 1   
     9    3   27 1   
    10    3   32 1   
    11    4    5 1   
    12    4   30 1   
    13    4   31 1   
    14    5   13 1   
    15    5   18 1   
    16    6   33 1   
    17    6   53 1   
    18    7    9 1   
    19    7   34 1   
    20    7   35 1   
    21    9   11 1   
    22    9   12 1   
    23    9   37 1   
    24   11   19 1   
    25   11   20 1   
    26   12   14 1   
    27   12   38 1   
    28   13   15 1   
    29   13   39 1   
    30   13   40 1   
    31   14   22 1   
    32   14   26 1   
    33   15   16 1   
    34   15   41 1   
    35   16   17 1   
    36   16   42 1   
    37   17   18 1   
    38   17   43 1   
    39   20   36 1   
    40   21   47 1   
    41   21   52 1   
    42   21   54 1   
    43   22   23 1   
    44   22   48 1   
    45   22   49 1   
    46   23   24 1   
    47   24   44 1   
    48   24   50 1   
    49   24   52 1   
    50   25   26 1   
    51   25   51 1   
    52   45   52 1   
    53   46   52 1   
@<TRIPOS>SUBSTRUCTURE
     1 32R         1 TEMP              0 ****  ****    0 ROOT
