@<TRIPOS>MOLECULE
32R
   53    51     1     0     0
SMALL
bcc


@<TRIPOS>ATOM
      1 P11         1.8120    1.5300   -0.7870 p5        1 32R      2.981000
      2 C1          3.3340   -1.8830   -1.0100 c3        1 32R     -0.191000
      3 C3          1.1280    0.9750    0.4740 c1        1 32R     -1.203000
      4 C6          3.4400   -1.9330   -2.5170 c3        1 32R     -0.140000
      5 C8          3.1390   -3.2720   -3.0530 c2        1 32R     -0.019000
      6 N10         0.5940    0.5160    1.4950 n3        1 32R      0.147000
      7 C11         1.3040    3.0910   -0.9490 c3        1 32R     -0.972000
      8 O12         1.8120    0.7220   -2.0140 o         1 32R     -1.210000
      9 C13        -3.0490    1.1140    2.8790 c2        1 32R     -0.133000
     10 O13         3.4100    1.7240   -0.5180 oh        1 32R     -0.861000
     11 C15        -2.2420    0.2840    3.8490 c2        1 32R      0.347000
     12 C16        -4.2370    1.6480    3.2080 c2        1 32R     -0.167000
     13 C17         1.7320   -3.8170   -2.9830 c3        1 32R     -0.120000
     14 C18        -5.0420    2.4430    2.3300 c2        1 32R     -0.017000
     15 C19         1.3870   -4.4810   -4.2910 c2        1 32R     -0.154000
     16 C20         2.3130   -4.9710   -5.1460 c2        1 32R     -0.150000
     17 C21         3.7040   -5.0210   -4.6660 c2        1 32R     -0.112000
     18 C22         3.9300   -4.0850   -3.7520 c1        1 32R     -0.200000
     19 O23        -1.1340   -0.1800    3.4300 o         1 32R     -0.572500
     20 O24        -2.6810    0.0850    5.0120 o         1 32R     -0.572500
     21 N24       -11.5070    3.6590    2.2860 n2        1 32R     -0.256000
     22 C36        -6.3910    2.9650    2.7960 c3        1 32R     -0.196000
     23 C37        -7.4330    2.7800    1.7780 c1        1 32R     -0.057000
     24 C38        -7.1040    2.5220    0.3670 c3        1 32R     -0.193000
     25 C39        -5.6990    2.9710    0.0360 c2        1 32R     -0.179000
     26 C40        -4.8740    2.7350    1.0380 c1        1 32R     -0.189000
     27 H11         3.1890   -0.8180   -0.6890 hc        1 32R      0.068667
     28 H12         2.4540   -2.4720   -0.6550 hc        1 32R      0.068667
     29 H31         4.2530   -2.2900   -0.5250 hc        1 32R      0.068667
     30 H61         2.7080   -1.1850   -2.9480 hc        1 32R      0.121500
     31 H62         4.4690   -1.6140   -2.8340 hc        1 32R      0.121500
     32 H101       -0.4130    0.4420    1.6460 hn        1 32R      0.225000
     33 H102        1.1160    0.1800    2.2910 hn        1 32R      0.225000
     34 H111        1.9760    3.8130   -0.4250 hc        1 32R      0.132000
     35 H112        0.2770    3.2640   -0.5490 hc        1 32R      0.132000
     36 H131        1.2810    3.3990   -2.0230 hc        1 32R      0.132000
     37 H161       -2.6040    1.2550    1.8820 ha        1 32R      0.106000
     38 H162       -4.6300    1.4820    4.2290 ha        1 32R      0.148000
     39 H171        1.0430   -2.9470   -2.8050 hc        1 32R      0.120500
     40 H191        1.5800   -4.5500   -2.1480 hc        1 32R      0.120500
     41 H201        0.3110   -4.5560   -4.5030 ha        1 32R      0.126000
     42 H211        2.0630   -5.4220   -6.1120 ha        1 32R      0.125000
     43 H221        4.3650   -5.8360   -4.9660 ha        1 32R      0.140000
     44 H231       -7.8380    3.0570   -0.2930 hc        1 32R      0.134500
     45 H232      -11.0370    2.0990    3.5100 h4        1 32R      0.127500
     46 H241       -9.5850    2.7460    2.5180 h4        1 32R      0.127500
     47 H242      -11.1430    4.3060    1.6150 hn        1 32R      0.125000
     48 H361       -6.3660    4.0640    3.0430 hc        1 32R      0.147000
     49 H371       -6.6930    2.4240    3.7360 hc        1 32R      0.147000
     50 H391       -7.2530    1.4160    0.2030 hc        1 32R      0.134500
     51 H401       -5.5030    3.5270   -0.8810 ha        1 32R      0.142000
     52 H1          3.9700    1.2350   -1.1100 ho        1 32R      0.252000
     53 C23       -10.6680    2.8290    2.7640 c2        1 32R     -0.134000
@<TRIPOS>BOND
     1    1    3 1   
     2    1    7 1   
     3    1    8 1   
     4    1   10 1   
     5    2    4 1   
     6    2   27 1   
     7    2   28 1   
     8    2   29 1   
     9    3    6 1   
    10    4    5 1   
    11    4   30 1   
    12    4   31 1   
    13    5   13 1   
    14    5   18 1   
    15    6   32 1   
    16    6   33 1   
    17    7   34 1   
    18    7   35 1   
    19    7   36 1   
    20    9   11 1   
    21    9   12 1   
    22    9   37 1   
    23   10   52 1   
    24   11   19 1   
    25   11   20 1   
    26   12   14 1   
    27   12   38 1   
    28   13   15 1   
    29   13   39 1   
    30   13   40 1   
    31   14   22 1   
    32   14   26 1   
    33   15   16 1   
    34   15   41 1   
    35   16   17 1   
    36   16   42 1   
    37   17   18 1   
    38   17   43 1   
    39   21   47 1   
    40   21   53 1   
    41   22   23 1   
    42   22   48 1   
    43   22   49 1   
    44   23   24 1   
    45   24   25 1   
    46   24   44 1   
    47   24   50 1   
    48   25   26 1   
    49   25   51 1   
    50   45   53 1   
    51   46   53 1   
@<TRIPOS>SUBSTRUCTURE
     1 32R         1 TEMP              0 ****  ****    0 ROOT
