@<TRIPOS>MOLECULE
32S
   23    20     1     0     0
SMALL
bcc


@<TRIPOS>ATOM
      1 N          -2.6930   -1.0110   -1.6620 n3        1 32S     -0.900800
      2 CA         -1.3480   -1.0550   -1.2040 c3        1 32S      0.018500
      3 CB         -1.3100   -0.7500    0.2760 c3        1 32S     -0.013200
      4 CG         -0.3940    0.4290    0.5250 ce        1 32S     -0.125300
      5 CD2         0.9160    0.3620    0.8490 ce        1 32S     -0.147400
      6 CE2         1.4050    1.7120    0.9950 cf        1 32S      0.084900
      7 SEL         2.1600   -0.6550    1.1360 ss        1 32S      0.089300
      8 CD1        -0.7590    1.7910    0.4590 c1        1 32S      0.190500
      9 NE1         0.3730    2.5590    0.7540 nf        1 32S     -0.546000
     10 CZ2         3.0430    1.6500    1.3960 ch        1 32S     -0.176300
     11 CZ3         3.4480    0.2450    1.4690 c1        1 32S     -0.222900
     12 C          -0.7760   -2.4320   -1.4500 c         1 32S      0.889600
     13 O           0.0540   -2.6130   -2.3790 o         1 32S     -0.841800
     14 OXT        -1.1430   -3.4020   -0.7360 o         1 32S     -0.841800
     15 H          -2.9660   -1.8550   -1.8900 hn        1 32S      0.333800
     16 HN2        -2.7490   -0.4640   -2.3950 hn        1 32S      0.333800
     17 HA         -0.8170   -0.3910   -1.6870 h1        1 32S      0.041700
     18 HB1        -2.2110   -0.5340    0.5880 hc        1 32S      0.063200
     19 HB2        -0.9750   -1.5310    0.7610 hc        1 32S      0.063200
     20 HD1        -1.6460    2.1370    0.2460 DU        1 32S      0.177000
     21 HE1         0.4110    3.4700    0.7800 DU        1 32S      0.177000
     22 HZ2         3.6220    2.4200    1.5520 DU        1 32S      0.177000
     23 HZ3         4.3550   -0.0840    1.6160 DU        1 32S      0.177000
@<TRIPOS>BOND
     1    1    2 1   
     2    1   15 1   
     3    1   16 1   
     4    2    3 1   
     5    2   12 1   
     6    2   17 1   
     7    3    4 1   
     8    3   18 1   
     9    3   19 1   
    10    4    5 1   
    11    4    8 2   
    12    5    6 2   
    13    5    7 1   
    14    6    9 1   
    15    6   10 1   
    16    7   11 1   
    17    8    9 2   
    18   10   11 3   
    19   12   13 1   
    20   12   14 1   
@<TRIPOS>SUBSTRUCTURE
     1 32S         1 TEMP              0 ****  ****    0 ROOT
