@<TRIPOS>MOLECULE
32S
   23    24     1     0     0
SMALL
bcc


@<TRIPOS>ATOM
      1 N           2.6230   -0.1010    1.6290 n3        1 32S     -0.900800
      2 CA          2.5500   -0.3270    0.1900 c3        1 32S      0.018500
      3 CB          1.2190    0.0940   -0.4360 c3        1 32S     -0.010100
      4 CG          0.0490   -0.6640    0.0310 cc        1 32S     -0.065300
      5 CD2        -1.2980   -0.5100   -0.4410 cc        1 32S     -0.118100
      6 CE2        -2.1060   -1.4580    0.2910 cd        1 32S     -0.113300
      7 SEL        -2.2460    0.3410   -1.5060 ss        1 32S      0.015200
      8 CD1         0.0140   -1.6740    1.0060 cd        1 32S     -0.117300
      9 NE1        -1.2880   -2.1680    1.1530 na        1 32S     -0.186100
     10 CZ2        -3.4800   -1.4130   -0.0830 cd        1 32S     -0.143000
     11 CZ3        -3.6630   -0.4580   -1.0590 cc        1 32S     -0.178100
     12 C           3.7030    0.3520   -0.6270 c         1 32S      0.889600
     13 O           4.6210    0.9360    0.0180 o         1 32S     -0.841800
     14 OXT         3.6620    0.2580   -1.8840 o         1 32S     -0.841800
     15 H           3.6000   -0.0690    1.8750 hn        1 32S      0.333800
     16 HN2         2.2510    0.8090    1.8320 hn        1 32S      0.333800
     17 HA          2.6740   -1.4400    0.0400 h1        1 32S      0.041700
     18 HB1         1.0440    1.1890   -0.2500 hc        1 32S      0.063200
     19 HB2         1.3320   -0.0370   -1.5500 hc        1 32S      0.063200
     20 HD1         0.8380   -2.0690    1.6050 h4        1 32S      0.188000
     21 HE1        -1.5890   -2.8200    1.8240 hn        1 32S      0.283700
     22 HZ2        -4.2570   -2.0440    0.3470 ha        1 32S      0.136000
     23 HZ3        -4.6160   -0.2160   -1.5240 h4        1 32S      0.150000
@<TRIPOS>BOND
     1    1    2 1   
     2    1   15 1   
     3    1   16 1   
     4    2    3 1   
     5    2   12 1   
     6    2   17 1   
     7    3    4 1   
     8    3   18 1   
     9    3   19 1   
    10    4    5 1   
    11    4    8 2   
    12    5    6 2   
    13    5    7 1   
    14    6    9 1   
    15    6   10 1   
    16    7   11 1   
    17    8    9 1   
    18    8   20 1   
    19    9   21 1   
    20   10   11 2   
    21   10   22 1   
    22   11   23 1   
    23   12   13 1   
    24   12   14 1   
@<TRIPOS>SUBSTRUCTURE
     1 32S         1 TEMP              0 ****  ****    0 ROOT
