@<TRIPOS>MOLECULE
32T
   23    24     1     0     0
SMALL
bcc


@<TRIPOS>ATOM
      1 N           6.6360    3.8410    0.6790 n3        1 32T     -0.890800
      2 CA          5.4560    3.5950   -0.1460 c3        1 32T      0.025500
      3 CB          5.7640    2.6050   -1.2820 c3        1 32T      0.007900
      4 CG          4.9240    2.8180   -2.4700 cc        1 32T     -0.102300
      5 CD2         5.2830    2.5840   -3.8360 cc        1 32T     -0.100100
      6 CE2         4.1220    2.9140   -4.6320 cd        1 32T     -0.130300
      7 SUL         6.5230    2.0830   -4.8250 ss        1 32T     -0.021800
      8 CD1         3.5910    3.2720   -2.4770 cd        1 32T     -0.101300
      9 NE1         3.1100    3.3360   -3.7860 na        1 32T     -0.176100
     10 CZ2         4.3400    2.7280   -6.0280 cd        1 32T     -0.132000
     11 CZ3         5.6220    2.2750   -6.2430 cc        1 32T     -0.180100
     12 C           4.2480    3.0670    0.6930 c         1 32T      0.884600
     13 O           4.4840    2.2140    1.5940 o         1 32T     -0.845300
     14 OXT         3.1010    3.5450    0.4510 o         1 32T     -0.845300
     15 H           6.9010    2.9700    1.1080 hn        1 32T      0.330800
     16 HN2         6.3610    4.4540    1.4260 hn        1 32T      0.330800
     17 HA          5.1570    4.5830   -0.6000 h1        1 32T      0.047700
     18 HB1         6.8430    2.6840   -1.5880 hc        1 32T      0.043700
     19 HB2         5.6010    1.5610   -0.8930 hc        1 32T      0.043700
     20 HD1         2.9780    3.5470   -1.6000 h4        1 32T      0.242000
     21 HE1         2.2020    3.5930   -4.0580 hn        1 32T      0.286700
     22 HZ2         3.5940    2.9200   -6.7980 ha        1 32T      0.134000
     23 HZ3         6.0530    2.0500   -7.2150 h4        1 32T      0.148000
@<TRIPOS>BOND
     1    1    2 1   
     2    1   15 1   
     3    1   16 1   
     4    2    3 1   
     5    2   12 1   
     6    2   17 1   
     7    3    4 1   
     8    3   18 1   
     9    3   19 1   
    10    4    5 1   
    11    4    8 2   
    12    5    6 2   
    13    5    7 1   
    14    6    9 1   
    15    6   10 1   
    16    7   11 1   
    17    8    9 1   
    18    8   20 1   
    19    9   21 1   
    20   10   11 2   
    21   10   22 1   
    22   11   23 1   
    23   12   13 1   
    24   12   14 1   
@<TRIPOS>SUBSTRUCTURE
     1 32T         1 TEMP              0 ****  ****    0 ROOT
