@<TRIPOS>MOLECULE
32U
   57    52     1     0     0
SMALL
bcc


@<TRIPOS>ATOM
      1 N13        -2.5020    0.1170   -2.5010 n3        1 32U     -0.335000
      2 C5         -1.8620    1.3200   -2.1970 c3        1 32U     -0.036000
      3 C14        -1.3300    1.2610   -0.7680 c1        1 32U      0.310000
      4 O32        -0.1770    1.3920   -0.5670 o         1 32U     -0.411000
      5 C33        -0.7280    1.5220   -3.1280 c3        1 32U     -0.152000
      6 C6         -1.0670    2.6290   -4.1120 c2        1 32U     -0.092000
      7 C8         -0.4020    3.8570   -4.0370 c1        1 32U     -0.123000
      8 C12        -1.9410    2.3750   -5.1720 c2        1 32U     -0.138000
      9 C9         -0.6160    4.8360   -5.0300 c1        1 32U     -0.122000
     10 C11        -2.1500    3.3460   -6.1530 c1        1 32U     -0.123000
     11 C10        -1.4810    4.5820   -6.0760 c1        1 32U     -0.122000
     12 N1         -2.2320    1.1160    0.3380 n2        1 32U     -0.307000
     13 C1         -1.8260    1.1110    1.9050 c3        1 32U      0.012000
     14 C7         -1.5730   -0.2880    2.4790 c1        1 32U      0.302000
     15 O22        -2.4400   -0.8690    2.9930 o         1 32U     -0.391000
     16 C2         -2.8740    1.7740    2.5030 c3        1 32U     -0.166000
     17 C3         -4.0820    1.5490    1.5950 c3        1 32U     -0.176000
     18 C4         -3.5290    0.9620    0.2770 c3        1 32U     -0.022000
     19 N23        -0.2080   -0.8430    2.4960 n2        1 32U     -0.377000
     20 C24         0.0370   -2.1330    3.0890 c3        1 32U      0.005000
     21 C25         1.4870   -2.5290    2.8690 c2        1 32U     -0.027000
     22 C26         1.8580   -3.1400    1.7020 c2        1 32U     -0.116000
     23 C27         3.1860   -3.5910    1.5340 c1        1 32U     -0.084000
     24 C28         4.1500   -3.4070    2.5920 c1        1 32U     -0.184000
     25 C21         5.6080   -3.9120    2.4160 c2        1 32U      0.347000
     26 N46         6.6110   -3.0300    2.2570 n2        1 32U     -0.317000
     27 N47         5.8750   -5.2710    2.4270 n3        1 32U     -0.319000
     28 C29         3.7810   -2.8030    3.7430 c1        1 32U     -0.086000
     29 C30         2.4400   -2.3480    3.9120 c1        1 32U     -0.106000
     30 H113       -3.2690    0.2910   -3.0590 hn        1 32U      0.158500
     31 H213       -1.9270   -0.4250   -2.9410 hn        1 32U      0.158500
     32 H5         -2.4970    2.0650   -2.2860 h1        1 32U      0.122000
     33 H133       -0.5520    0.6740   -3.6260 hc        1 32U      0.108500
     34 H233        0.0570    1.7690   -2.6270 hc        1 32U      0.108500
     35 H8          0.2250    4.0420   -3.2740 ha        1 32U      0.133000
     36 H12A       -2.4330    1.4670   -5.2310 ha        1 32U      0.126000
     37 H9         -0.1350    5.7260   -4.9770 ha        1 32U      0.139500
     38 H11        -2.7480    3.1720   -6.8770 ha        1 32U      0.137000
     39 H10        -1.6300    5.2670   -6.7700 ha        1 32U      0.139500
     40 H1         -0.9320    1.5710    2.0720 h1        1 32U      0.125000
     41 H12        -3.0550    1.3860    3.4340 hc        1 32U      0.114500
     42 H22        -2.6830    2.6930    2.5660 hc        1 32U      0.114500
     43 H13        -4.7280    0.8870    2.0290 hc        1 32U      0.102000
     44 H23        -4.5540    2.4290    1.4160 hc        1 32U      0.102000
     45 H14        -3.7480    0.0180    0.2140 h1        1 32U      0.104000
     46 H24        -3.9020    1.4550   -0.5050 h1        1 32U      0.104000
     47 HN23        0.4060   -0.4230    2.1670 hn        1 32U      0.264000
     48 H124       -0.1360   -2.0940    4.0030 h1        1 32U      0.118000
     49 H224       -0.5640   -2.8120    2.6650 h1        1 32U      0.118000
     50 H26         1.1900   -3.2670    0.9700 ha        1 32U      0.164000
     51 H27         3.4600   -4.0440    0.6760 ha        1 32U      0.145000
     52 H146        6.4380   -2.1010    2.2490 DU        1 32U      0.286000
     53 H147        5.7640   -5.7480    3.2270 hn        1 32U      0.275500
     54 H247        5.9270   -5.7290    1.6220 hn        1 32U      0.275500
     55 H29         4.4790   -2.6710    4.5080 ha        1 32U      0.147000
     56 H30         2.1530   -1.8790    4.8060 ha        1 32U      0.200000
     57 H246        7.3820   -3.3010    2.1640 hn        1 32U      0.266000
@<TRIPOS>BOND
     1    1    2 1   
     2    1   30 1   
     3    1   31 1   
     4    2    3 1   
     5    2    5 1   
     6    2   32 1   
     7    3    4 1   
     8    5    6 1   
     9    5   33 1   
    10    5   34 1   
    11    6    7 1   
    12    6    8 1   
    13    7   35 1   
    14    8   10 1   
    15    8   36 1   
    16    9   11 1   
    17    9   37 1   
    18   10   38 1   
    19   11   39 1   
    20   12   13 1   
    21   12   18 1   
    22   13   14 1   
    23   13   16 1   
    24   13   40 1   
    25   14   15 1   
    26   16   17 1   
    27   16   41 1   
    28   16   42 1   
    29   17   18 1   
    30   17   43 1   
    31   17   44 1   
    32   18   45 1   
    33   18   46 1   
    34   19   20 1   
    35   19   47 1   
    36   20   21 1   
    37   20   48 1   
    38   20   49 1   
    39   21   22 1   
    40   21   29 1   
    41   22   23 1   
    42   22   50 1   
    43   23   51 1   
    44   24   25 1   
    45   24   28 1   
    46   25   26 1   
    47   25   27 1   
    48   26   57 1   
    49   27   53 1   
    50   27   54 1   
    51   28   55 1   
    52   29   56 1   
@<TRIPOS>SUBSTRUCTURE
     1 32U         1 TEMP              0 ****  ****    0 ROOT
