@<TRIPOS>MOLECULE
32U
   57    59     1     0     0
SMALL
bcc


@<TRIPOS>ATOM
      1 N13        -3.0270   -2.5360   -0.5180 n3        1 32U     -0.889800
      2 C5         -3.0920   -1.1010   -0.3800 c3        1 32U      0.124500
      3 C14        -1.7020   -0.4200   -0.4740 c         1 32U      0.614100
      4 O32        -0.7870   -0.9350   -1.1580 o         1 32U     -0.653100
      5 C33        -4.0000   -0.4380   -1.4400 c3        1 32U     -0.028100
      6 C6         -5.3570   -0.1580   -0.8990 ca        1 32U     -0.101300
      7 C8         -6.1680   -1.2030   -0.4390 ca        1 32U     -0.125500
      8 C12        -5.8460    1.1540   -0.8720 ca        1 32U     -0.125500
      9 C9         -7.4480   -0.9370    0.0430 ca        1 32U     -0.127000
     10 C11        -7.1280    1.4160   -0.3900 ca        1 32U     -0.127000
     11 C10        -7.9300    0.3720    0.0690 ca        1 32U     -0.121000
     12 N1         -1.4530    0.7290    0.2510 n         1 32U     -0.456800
     13 C1         -0.2670    1.5430    0.0190 c3        1 32U      0.038700
     14 C7          0.9600    1.0920    0.8430 c         1 32U      0.658100
     15 O22         1.6250    1.8970    1.5260 o         1 32U     -0.628100
     16 C2         -0.6450    3.0020    0.3610 c3        1 32U     -0.088400
     17 C3         -2.0170    2.9500    1.0230 c3        1 32U     -0.092400
     18 C4         -2.4960    1.4940    0.9170 c3        1 32U      0.077000
     19 N23         1.3310   -0.2340    0.7600 n         1 32U     -0.568900
     20 C24         2.4170   -0.7720    1.5220 c3        1 32U      0.127300
     21 C25         3.7720   -0.6470    0.8670 ca        1 32U     -0.035300
     22 C26         4.4450   -1.7810    0.4000 ca        1 32U     -0.111000
     23 C27         5.7110   -1.6620   -0.1690 ca        1 32U     -0.084500
     24 C28         6.3040   -0.3970   -0.2810 ca        1 32U     -0.266900
     25 C21         7.6490   -0.2630   -0.8930 ce        1 32U      0.524400
     26 N46         8.6260   -1.1170   -0.5090 nh        1 32U     -0.471600
     27 N47         7.8510    0.7090   -1.8120 nh        1 32U     -0.455700
     28 C29         5.6320    0.7450    0.1800 ca        1 32U     -0.084500
     29 C30         4.3720    0.6150    0.7550 ca        1 32U     -0.111000
     30 H113       -2.6990   -2.7980   -1.4280 hn        1 32U      0.363800
     31 H213       -2.4240   -2.9310    0.1760 hn        1 32U      0.363800
     32 H5         -3.5210   -0.8980    0.6490 h1        1 32U      0.088700
     33 H133       -3.5240    0.5160   -1.7920 hc        1 32U      0.062700
     34 H233       -4.0960   -1.1010   -2.3430 hc        1 32U      0.062700
     35 H8         -5.7890   -2.2370   -0.4620 ha        1 32U      0.138000
     36 H12A       -5.2230    1.9820   -1.2420 ha        1 32U      0.138000
     37 H9         -8.0800   -1.7630    0.4010 ha        1 32U      0.136500
     38 H11        -7.5070    2.4490   -0.3770 ha        1 32U      0.136500
     39 H10        -8.9420    0.5800    0.4480 ha        1 32U      0.138000
     40 H1          0.0430    1.4570   -1.0660 h1        1 32U      0.085700
     41 H12         0.1140    3.4660    1.0390 hc        1 32U      0.076200
     42 H22        -0.6800    3.6020   -0.5830 hc        1 32U      0.076200
     43 H13        -1.9530    3.2570    2.0960 hc        1 32U      0.064200
     44 H23        -2.7360    3.6350    0.5120 hc        1 32U      0.064200
     45 H14        -3.4630    1.4340    0.3420 h1        1 32U      0.062700
     46 H24        -2.6690    1.0570    1.9400 h1        1 32U      0.062700
     47 HN23        0.8750   -0.8350    0.1080 hn        1 32U      0.350500
     48 H124        2.4720   -0.2310    2.5140 h1        1 32U      0.079700
     49 H224        2.2040   -1.8620    1.7200 h1        1 32U      0.079700
     50 H26         3.9750   -2.7750    0.4780 ha        1 32U      0.181500
     51 H27         6.2200   -2.5630   -0.5470 ha        1 32U      0.146500
     52 H146        9.5470   -1.0980   -0.8880 hn        1 32U      0.325450
     53 H147        7.0800    1.2910   -2.0690 hn        1 32U      0.325450
     54 H247        8.7310    0.8730   -2.2490 hn        1 32U      0.325450
     55 H29         6.0960    1.7420    0.1160 ha        1 32U      0.146500
     56 H30         3.8310    1.5060    1.1310 ha        1 32U      0.181500
     57 H246        8.4200   -1.7950    0.1940 hn        1 32U      0.325450
@<TRIPOS>BOND
     1    1    2 1   
     2    1   30 1   
     3    1   31 1   
     4    2    3 1   
     5    2    5 1   
     6    2   32 1   
     7    3    4 2   
     8    3   12 1   
     9    5    6 1   
    10    5   33 1   
    11    5   34 1   
    12    6    7 ar  
    13    6    8 ar  
    14    7    9 ar  
    15    7   35 1   
    16    8   10 ar  
    17    8   36 1   
    18    9   11 ar  
    19    9   37 1   
    20   10   11 ar  
    21   10   38 1   
    22   11   39 1   
    23   12   13 1   
    24   12   18 1   
    25   13   14 1   
    26   13   16 1   
    27   13   40 1   
    28   14   15 2   
    29   14   19 1   
    30   16   17 1   
    31   16   41 1   
    32   16   42 1   
    33   17   18 1   
    34   17   43 1   
    35   17   44 1   
    36   18   45 1   
    37   18   46 1   
    38   19   20 1   
    39   19   47 1   
    40   20   21 1   
    41   20   48 1   
    42   20   49 1   
    43   21   22 ar  
    44   21   29 ar  
    45   22   23 ar  
    46   22   50 1   
    47   23   24 ar  
    48   23   51 1   
    49   24   25 1   
    50   24   28 ar  
    51   25   26 2   
    52   25   27 1   
    53   26   52 1   
    54   26   57 1   
    55   27   53 1   
    56   27   54 1   
    57   28   29 ar  
    58   28   55 1   
    59   29   56 1   
@<TRIPOS>SUBSTRUCTURE
     1 32U         1 TEMP              0 ****  ****    0 ROOT
