@<TRIPOS>MOLECULE
32V
   38    40     1     0     0
SMALL
bcc


@<TRIPOS>ATOM
      1 C1          0.0710   -0.3560    0.0750 cc        1 32V     -0.286700
      2 C2          1.5250    0.2170   -2.1820 cc        1 32V      0.515800
      3 N1          0.1850   -0.1770   -2.3660 n         1 32V     -0.395300
      4 N2          2.1510    0.3740   -1.0200 nd        1 32V     -0.525100
      5 C3          1.4200    0.0930    0.1190 cd        1 32V      0.129400
      6 C4         -0.5900   -0.5220   -1.2090 c         1 32V      0.761100
      7 S1         -0.5290   -0.6170    1.5860 ss        1 32V      0.346200
      8 C5          1.8830    0.1950    1.4770 cd        1 32V      0.072000
      9 C6          0.8600   -0.1820    2.3470 cc        1 32V     -0.188100
     10 N3          2.3460    0.5440   -3.3970 n4        1 32V     -0.720000
     11 C7          3.1590    0.6100    1.8520 ch        1 32V     -0.143000
     12 C8          4.2530    0.9670    2.1860 c1        1 32V     -0.065500
     13 O1         -1.7510   -0.9190   -1.3740 o         1 32V     -0.568500
     14 C9         -0.4440   -0.2650   -3.6720 c3        1 32V      0.055000
     15 C10         3.7270   -0.0790   -3.3870 c3        1 32V      0.134500
     16 C11         3.6700   -1.6130   -3.4670 c3        1 32V     -0.108400
     17 C12         4.5150    0.3590   -4.6360 c3        1 32V     -0.108400
     18 C13        -0.1160   -1.5130   -4.4730 c3        1 32V     -0.128100
     19 C14         4.3330   -0.7410   -5.6700 c3        1 32V     -0.096400
     20 C15         3.8750   -1.9900   -4.9280 c3        1 32V     -0.096400
     21 H1          0.9750   -0.1850    3.4360 h4        1 32V      0.209000
     22 H2          2.4460    1.5670   -3.4360 hn        1 32V      0.462800
     23 H3          5.2210    1.2830    2.4910 ha        1 32V      0.182500
     24 H4         -1.5660   -0.2470   -3.5030 h1        1 32V      0.084200
     25 H5         -0.2000    0.6620   -4.2660 h1        1 32V      0.084200
     26 H6          4.2410    0.2660   -2.4430 hx        1 32V      0.135700
     27 H7          4.5050   -2.0180   -2.8360 hc        1 32V      0.084700
     28 H8          2.7180   -2.0350   -3.0590 hc        1 32V      0.084700
     29 H9          5.5950    0.4390   -4.3370 hc        1 32V      0.084700
     30 H10         4.2110    1.3590   -5.0320 hc        1 32V      0.084700
     31 H11        -0.4800   -2.4290   -3.9440 hc        1 32V      0.059367
     32 H12         0.9790   -1.6330   -4.6600 hc        1 32V      0.059367
     33 H13        -0.6410   -1.4470   -5.4580 hc        1 32V      0.059367
     34 H14         3.5750   -0.4390   -6.4370 hc        1 32V      0.070200
     35 H15         5.2930   -0.9270   -6.2150 hc        1 32V      0.070200
     36 H16         4.6410   -2.8040   -5.0120 hc        1 32V      0.070200
     37 H17         2.9280   -2.3880   -5.3730 hc        1 32V      0.070200
     38 H32         1.8650    0.2220   -4.2470 hn        1 32V      0.462800
@<TRIPOS>BOND
     1    1    5 2   
     2    1    6 1   
     3    1    7 1   
     4    2    3 1   
     5    2    4 2   
     6    2   10 1   
     7    3    6 1   
     8    3   14 1   
     9    4    5 1   
    10    5    8 1   
    11    6   13 2   
    12    7    9 1   
    13    8    9 2   
    14    8   11 1   
    15    9   21 1   
    16   10   15 1   
    17   10   22 1   
    18   10   38 1   
    19   11   12 3   
    20   12   23 1   
    21   14   18 1   
    22   14   24 1   
    23   14   25 1   
    24   15   16 1   
    25   15   17 1   
    26   15   26 1   
    27   16   20 1   
    28   16   27 1   
    29   16   28 1   
    30   17   19 1   
    31   17   29 1   
    32   17   30 1   
    33   18   31 1   
    34   18   32 1   
    35   18   33 1   
    36   19   20 1   
    37   19   34 1   
    38   19   35 1   
    39   20   36 1   
    40   20   37 1   
@<TRIPOS>SUBSTRUCTURE
     1 32V         1 TEMP              0 ****  ****    0 ROOT
