@<TRIPOS>MOLECULE
32V
   38    39     1     0     0
SMALL
bcc


@<TRIPOS>ATOM
      1 C1          0.4530   -0.7190   -0.5040 c2        1 32V     -0.566000
      2 C2          0.9250    0.7300   -2.8200 c2        1 32V      0.253000
      3 N1         -0.3340    0.1100   -2.6590 n         1 32V     -0.286000
      4 N2          1.9390    0.6370   -1.9220 n2        1 32V     -0.323000
      5 C3          1.6650   -0.0270   -0.7470 c2        1 32V      0.048000
      6 C4         -0.5880   -0.7090   -1.5160 c2        1 32V      0.393000
      7 S1          0.4190   -1.4110    1.0020 ss        1 32V      0.833000
      8 C5          2.5290   -0.1190    0.4060 c2        1 32V     -0.051000
      9 C6          1.9130   -0.8720    1.4080 c2        1 32V     -0.426000
     10 N3          1.2080    1.4390   -4.0090 nv        1 32V     -0.340000
     11 C7          3.7600    0.5230    0.5360 c1        1 32V     -0.113000
     12 C8          4.8050    1.0930    0.6800 c1        1 32V     -0.207000
     13 O1         -1.6540   -1.3380   -1.4450 o         1 32V     -0.309000
     14 C9         -1.3990    0.2610   -3.6390 c3        1 32V     -0.050000
     15 C10         4.5650   -0.0780   -2.5750 c2        1 32V      0.316000
     16 C11         4.5390   -1.4670   -2.1370 c3        1 32V     -0.258500
     17 C12         4.5970    0.0360   -4.0290 c3        1 32V     -0.258500
     18 C13        -1.2480   -0.5760   -4.8980 c3        1 32V     -0.239000
     19 C14         4.6500   -1.3880   -4.5880 c3        1 32V     -0.172000
     20 C15         4.5650   -2.3380   -3.3930 c3        1 32V     -0.172000
     21 H1          2.3780   -1.0640    2.3800 h4        1 32V      0.200000
     22 H2          0.4360    1.6140   -4.6170 hn        1 32V      0.222500
     23 H3          5.7190    1.6090    0.8460 ha        1 32V      0.239000
     24 H4         -2.3670   -0.0380   -3.1320 h1        1 32V      0.120500
     25 H5         -1.4990    1.3530   -3.9070 h1        1 32V      0.120500
     26 H6          4.5880    0.7790   -1.8730 ha        1 32V      0.212000
     27 H7          5.4010   -1.6860   -1.4390 hc        1 32V      0.201750
     28 H8          3.6140   -1.6390   -1.4980 hc        1 32V      0.201750
     29 H9          5.4690    0.6670   -4.3690 hc        1 32V      0.201750
     30 H10         3.6750    0.5910   -4.3850 hc        1 32V      0.201750
     31 H11        -2.1290   -0.3750   -5.5570 hc        1 32V      0.094667
     32 H12        -0.3200   -0.3330   -5.4650 hc        1 32V      0.094667
     33 H13        -1.2370   -1.6650   -4.6510 hc        1 32V      0.094667
     34 H14         3.8020   -1.5620   -5.2970 hc        1 32V      0.124750
     35 H15         5.6010   -1.5480   -5.1570 hc        1 32V      0.124750
     36 H16         3.6410   -2.9680   -3.4510 hc        1 32V      0.124750
     37 H17         5.4420   -3.0330   -3.3720 hc        1 32V      0.124750
     38 H32         1.8020    2.2320   -3.8830 hn        1 32V      0.222500
@<TRIPOS>BOND
     1    1    5 1   
     2    1    6 1   
     3    1    7 1   
     4    2    3 1   
     5    2    4 1   
     6    2   10 1   
     7    3    6 1   
     8    3   14 1   
     9    4    5 1   
    10    5    8 1   
    11    6   13 1   
    12    7    9 1   
    13    8    9 1   
    14    8   11 1   
    15    9   21 1   
    16   10   22 1   
    17   10   38 1   
    18   11   12 1   
    19   12   23 1   
    20   14   18 1   
    21   14   24 1   
    22   14   25 1   
    23   15   16 1   
    24   15   17 1   
    25   15   26 1   
    26   16   20 1   
    27   16   27 1   
    28   16   28 1   
    29   17   19 1   
    30   17   29 1   
    31   17   30 1   
    32   18   31 1   
    33   18   32 1   
    34   18   33 1   
    35   19   20 1   
    36   19   34 1   
    37   19   35 1   
    38   20   36 1   
    39   20   37 1   
@<TRIPOS>SUBSTRUCTURE
     1 32V         1 TEMP              0 ****  ****    0 ROOT
