@<TRIPOS>MOLECULE
32W
   51    54     1     0     0
SMALL
bcc


@<TRIPOS>ATOM
      1 O1         -6.1420    1.5080   -1.8820 o         1 32W     -0.608100
      2 C3         -5.6830    0.9910   -0.8420 c         1 32W      0.666700
      3 N          -6.3400    1.1180    0.3700 n         1 32W     -0.551900
      4 C2         -7.6730    1.6380    0.4650 c3        1 32W      0.086000
      5 C1         -8.7710    0.5760    0.6220 c3        1 32W      0.094400
      6 O          -8.5230   -0.1030    1.8510 os        1 32W     -0.433600
      7 C          -9.5030   -1.0860    2.1370 c3        1 32W      0.116700
      8 C4         -4.3700    0.2870   -0.8400 ca        1 32W     -0.150600
      9 C22        -3.3500    0.7840   -1.6590 ca        1 32W     -0.078500
     10 C21        -2.1080    0.1610   -1.7080 ca        1 32W     -0.147000
     11 C7         -1.8620   -0.9860   -0.9230 ca        1 32W      0.153600
     12 C6         -2.9030   -1.4930   -0.1120 ca        1 32W     -0.147000
     13 C5         -4.1410   -0.8610   -0.0770 ca        1 32W     -0.078500
     14 N1         -0.6390   -1.6890   -1.0040 nh        1 32W     -0.711300
     15 C8          0.6000   -1.0900   -0.6960 ca        1 32W      0.874900
     16 N3          1.6450   -1.9360   -0.4610 nb        1 32W     -0.752000
     17 C15         2.8770   -1.3640   -0.2510 ca        1 32W      0.464600
     18 C10         3.0580    0.0530   -0.2530 ca        1 32W     -0.313600
     19 C9          1.8790    0.8390   -0.4850 ca        1 32W      0.486200
     20 N2          0.6860    0.3240   -0.6990 nb        1 32W     -0.714000
     21 C14         4.0270   -2.1850   -0.0150 ca        1 32W     -0.190300
     22 C13         5.2520   -1.6090    0.2020 ca        1 32W     -0.083000
     23 C12         5.4240   -0.1970    0.1970 cp        1 32W     -0.068000
     24 C11         4.3310    0.6180   -0.0320 ca        1 32W     -0.059000
     25 C16         6.7490    0.3710    0.4320 cp        1 32W      0.003000
     26 C20         7.6110   -0.1790    1.3920 ca        1 32W     -0.239300
     27 C19         8.8740    0.4070    1.5820 ca        1 32W      0.395200
     28 N4          9.3130    1.4760    0.8890 nb        1 32W     -0.662000
     29 C18         8.4770    1.9960   -0.0310 ca        1 32W      0.395200
     30 C17         7.1950    1.4850   -0.2960 ca        1 32W     -0.239300
     31 H          -6.0260    0.5770    1.1430 hn        1 32W      0.315500
     32 H21C       -7.7110    2.3180    1.3630 h1        1 32W      0.073200
     33 H22C       -7.9050    2.2370   -0.4620 h1        1 32W      0.073200
     34 H11C       -9.7710    1.0820    0.6620 h1        1 32W      0.038700
     35 H12C       -8.7610   -0.1600   -0.2250 h1        1 32W      0.038700
     36 HC1        -9.5190   -1.8710    1.3410 h1        1 32W      0.034367
     37 HC2        -9.1830   -1.5250    3.1150 h1        1 32W      0.034367
     38 HC3       -10.5150   -0.6190    2.2300 h1        1 32W      0.034367
     39 H22        -3.5470    1.6730   -2.2820 ha        1 32W      0.148000
     40 H5         -4.9380   -1.2880    0.5520 ha        1 32W      0.148000
     41 H21        -1.3270    0.5690   -2.3670 ha        1 32W      0.148000
     42 H6         -2.7460   -2.3960    0.4970 ha        1 32W      0.148000
     43 H1         -0.7040   -2.6590   -0.7650 hn        1 32W      0.443800
     44 H14         3.9110   -3.2800   -0.0130 ha        1 32W      0.156000
     45 H9          1.9460    1.9440   -0.4850 h4        1 32W      0.031100
     46 H11         4.4370    1.7140   -0.0370 ha        1 32W      0.140000
     47 H13         6.1360   -2.2440    0.3780 ha        1 32W      0.142000
     48 H20         7.3050   -1.0460    1.9930 ha        1 32W      0.145500
     49 H17         6.5610    1.9470   -1.0640 ha        1 32W      0.145500
     50 H19         9.5760   -0.0000    2.3320 h4        1 32W      0.024100
     51 H18         8.8610    2.8700   -0.5870 h4        1 32W      0.024100
@<TRIPOS>BOND
     1    1    2 2   
     2    2    3 1   
     3    2    8 1   
     4    3    4 1   
     5    3   31 1   
     6    4    5 1   
     7    4   32 1   
     8    4   33 1   
     9    5    6 1   
    10    5   34 1   
    11    5   35 1   
    12    6    7 1   
    13    7   36 1   
    14    7   37 1   
    15    7   38 1   
    16    8    9 ar  
    17    8   13 ar  
    18    9   10 ar  
    19    9   39 1   
    20   10   11 ar  
    21   10   41 1   
    22   11   12 ar  
    23   11   14 1   
    24   12   13 ar  
    25   12   42 1   
    26   13   40 1   
    27   14   15 1   
    28   14   43 1   
    29   15   16 ar  
    30   15   20 ar  
    31   16   17 ar  
    32   17   18 ar  
    33   17   21 ar  
    34   18   19 ar  
    35   18   24 ar  
    36   19   20 ar  
    37   19   45 1   
    38   21   22 ar  
    39   21   44 1   
    40   22   23 ar  
    41   22   47 1   
    42   23   24 ar  
    43   23   25 1   
    44   24   46 1   
    45   25   26 ar  
    46   25   30 ar  
    47   26   27 ar  
    48   26   48 1   
    49   27   28 ar  
    50   27   50 1   
    51   28   29 ar  
    52   29   30 ar  
    53   29   51 1   
    54   30   49 1   
@<TRIPOS>SUBSTRUCTURE
     1 32W         1 TEMP              0 ****  ****    0 ROOT
