@<TRIPOS>MOLECULE
32W
   52    55     1     0     0
SMALL
bcc


@<TRIPOS>ATOM
      1 O1          0.0480    0.0770    0.3770 o         1 32W     -0.459100
      2 C3          1.2590    0.0440    0.1870 c         1 32W      0.583700
      3 N           2.0990   -0.1880    1.4380 n4        1 32W     -0.670800
      4 C2          1.3090   -0.1540    2.7000 c3        1 32W      0.104800
      5 C1          2.1740   -0.4180    3.9350 c3        1 32W      0.102400
      6 O           3.2960    0.4520    3.8520 os        1 32W     -0.464600
      7 C           3.9810    0.6050    5.0920 c3        1 32W      0.118700
      8 C4          1.9860    0.1960   -1.0530 ca        1 32W     -0.285600
      9 C22         1.2200    0.4810   -2.2070 ca        1 32W     -0.014000
     10 C21         1.8150    0.6560   -3.4390 ca        1 32W     -0.200500
     11 C7          3.2270    0.5660   -3.5830 ca        1 32W      0.294600
     12 C6          3.9910    0.2460   -2.4120 ca        1 32W     -0.200500
     13 C5          3.3830    0.0740   -1.1890 ca        1 32W     -0.014000
     14 N1          3.9010    0.7320   -4.7650 nh        1 32W     -0.715300
     15 C8          3.3750    1.2580   -5.9800 ca        1 32W      0.842900
     16 N3          3.9310    0.7880   -7.1230 nb        1 32W     -0.698000
     17 C15         3.4840    1.3410   -8.3050 ca        1 32W      0.437600
     18 C10         2.4790    2.3580   -8.3180 ca        1 32W     -0.278600
     19 C9          1.9660    2.7620   -7.0390 ca        1 32W      0.486200
     20 N2          2.3760    2.2500   -5.8940 nb        1 32W     -0.715000
     21 C14         4.0200    0.9050   -9.5570 ca        1 32W     -0.176300
     22 C13         3.5730    1.4660  -10.7270 ca        1 32W     -0.080000
     23 C12         2.5750    2.4790  -10.7350 cp        1 32W     -0.027000
     24 C11         2.0370    2.9130   -9.5370 ca        1 32W     -0.078000
     25 C16         2.1320    3.0480  -12.0060 cp        1 32W     -0.019000
     26 C20         3.0510    3.3300  -13.0270 ca        1 32W     -0.234300
     27 C19         2.5740    3.8800  -14.2300 ca        1 32W      0.400700
     28 N4          1.2750    4.1510  -14.4620 nb        1 32W     -0.648000
     29 C18         0.4020    3.8740  -13.4750 ca        1 32W      0.400700
     30 C17         0.7770    3.3270  -12.2350 ca        1 32W     -0.234300
     31 H           2.5700   -1.0940    1.3540 hn        1 32W      0.459800
     32 H21C        0.4920   -0.9290    2.6360 hx        1 32W      0.118700
     33 H22C        0.8310    0.8650    2.7720 hx        1 32W      0.118700
     34 H11C        1.5580   -0.2030    4.8490 h1        1 32W      0.071200
     35 H12C        2.5330   -1.4820    3.9680 h1        1 32W      0.071200
     36 HC1         3.3040    1.0620    5.8540 h1        1 32W      0.056367
     37 HC2         4.8280    1.2940    4.8480 h1        1 32W      0.056367
     38 HC3         4.3610   -0.3840    5.4480 h1        1 32W      0.056367
     39 H22         0.1210    0.5590   -2.1150 ha        1 32W      0.144500
     40 H5          4.0280   -0.1630   -0.3280 ha        1 32W      0.144500
     41 H21         1.1690    0.8610   -4.3080 ha        1 32W      0.170000
     42 H6          5.0870    0.1430   -2.4840 ha        1 32W      0.170000
     43 H1          4.8510    0.4200   -4.8070 hn        1 32W      0.473800
     44 H14         4.7910    0.1180   -9.5680 ha        1 32W      0.164000
     45 H9          1.1870    3.5480   -6.9790 h4        1 32W      0.043100
     46 H11         1.2660    3.7000   -9.5190 ha        1 32W      0.151000
     47 H13         3.9850    1.1270  -11.6930 ha        1 32W      0.156000
     48 H20         4.1240    3.1360  -12.8940 ha        1 32W      0.145500
     49 H17         0.0180    3.1150  -11.4700 ha        1 32W      0.145500
     50 H19         3.2690    4.1180  -15.0560 h4        1 32W      0.031600
     51 H18        -0.6570    4.1040  -13.6920 h4        1 32W      0.031600
     52 HN3         2.8260    0.5390    1.4940 hn        1 32W      0.459800
@<TRIPOS>BOND
     1    1    2 2   
     2    2    3 1   
     3    2    8 1   
     4    3    4 1   
     5    3   31 1   
     6    3   52 1   
     7    4    5 1   
     8    4   32 1   
     9    4   33 1   
    10    5    6 1   
    11    5   34 1   
    12    5   35 1   
    13    6    7 1   
    14    7   36 1   
    15    7   37 1   
    16    7   38 1   
    17    8    9 ar  
    18    8   13 ar  
    19    9   10 ar  
    20    9   39 1   
    21   10   11 ar  
    22   10   41 1   
    23   11   12 ar  
    24   11   14 1   
    25   12   13 ar  
    26   12   42 1   
    27   13   40 1   
    28   14   15 1   
    29   14   43 1   
    30   15   16 ar  
    31   15   20 ar  
    32   16   17 ar  
    33   17   18 ar  
    34   17   21 ar  
    35   18   19 ar  
    36   18   24 ar  
    37   19   20 ar  
    38   19   45 1   
    39   21   22 ar  
    40   21   44 1   
    41   22   23 ar  
    42   22   47 1   
    43   23   24 ar  
    44   23   25 1   
    45   24   46 1   
    46   25   26 ar  
    47   25   30 ar  
    48   26   27 ar  
    49   26   48 1   
    50   27   28 ar  
    51   27   50 1   
    52   28   29 ar  
    53   29   30 ar  
    54   29   51 1   
    55   30   49 1   
@<TRIPOS>SUBSTRUCTURE
     1 32W         1 TEMP              0 ****  ****    0 ROOT
