@<TRIPOS>MOLECULE
32W
   52    55     1     0     0
SMALL
bcc


@<TRIPOS>ATOM
      1 O1          0.0520    0.0920    0.3810 o         1 32W     -0.459100
      2 C3          1.2630    0.0530    0.1890 c         1 32W      0.583700
      3 N           2.1040   -0.1840    1.4380 ny        1 32W     -0.670800
      4 C2          1.3150   -0.1490    2.7010 c3        1 32W      0.104800
      5 C1          2.1810   -0.4190    3.9350 c3        1 32W      0.102400
      6 O           3.3070    0.4470    3.8520 os        1 32W     -0.464600
      7 C           3.9940    0.5950    5.0900 c3        1 32W      0.118700
      8 C4          1.9890    0.2020   -1.0530 ca        1 32W     -0.285600
      9 C22         1.2220    0.4910   -2.2050 ca        1 32W     -0.014000
     10 C21         1.8160    0.6640   -3.4380 ca        1 32W     -0.200500
     11 C7          3.2270    0.5670   -3.5840 ca        1 32W      0.294600
     12 C6          3.9920    0.2440   -2.4140 ca        1 32W     -0.200500
     13 C5          3.3850    0.0740   -1.1910 ca        1 32W     -0.014000
     14 N1          3.9000    0.7300   -4.7680 nu        1 32W     -0.715300
     15 C8          3.3730    1.2580   -5.9820 ca        1 32W      0.842900
     16 N3          3.9240    0.7850   -7.1250 nb        1 32W     -0.698000
     17 C15         3.4770    1.3400   -8.3070 ca        1 32W      0.437600
     18 C10         2.4780    2.3620   -8.3180 ca        1 32W     -0.278600
     19 C9          1.9710    2.7700   -7.0380 ca        1 32W      0.486200
     20 N2          2.3800    2.2570   -5.8930 nb        1 32W     -0.715000
     21 C14         4.0070    0.9000   -9.5600 ca        1 32W     -0.176300
     22 C13         3.5600    1.4630  -10.7300 ca        1 32W     -0.080000
     23 C12         2.5680    2.4820  -10.7350 cp        1 32W     -0.027000
     24 C11         2.0360    2.9200   -9.5360 ca        1 32W     -0.078000
     25 C16         2.1240    3.0520  -12.0050 cp        1 32W     -0.019000
     26 C20         3.0420    3.3280  -13.0290 ca        1 32W     -0.234300
     27 C19         2.5640    3.8800  -14.2310 ca        1 32W      0.400700
     28 N4          1.2670    4.1590  -14.4590 nb        1 32W     -0.648000
     29 C18         0.3950    3.8880  -13.4690 ca        1 32W      0.400700
     30 C17         0.7700    3.3390  -12.2300 ca        1 32W     -0.234300
     31 H           2.5710   -1.0910    1.3520 hn        1 32W      0.459800
     32 H21C        0.8420    0.8720    2.7760 hx        1 32W      0.118700
     33 H22C        0.4950   -0.9200    2.6380 hx        1 32W      0.118700
     34 H11C        1.5670   -0.2030    4.8500 h1        1 32W      0.071200
     35 H12C        2.5360   -1.4840    3.9650 h1        1 32W      0.071200
     36 HC1         4.3710   -0.3960    5.4440 h1        1 32W      0.056367
     37 HC2         4.8440    1.2810    4.8460 h1        1 32W      0.056367
     38 HC3         3.3200    1.0530    5.8550 h1        1 32W      0.056367
     39 H22         0.1240    0.5740   -2.1110 ha        1 32W      0.144500
     40 H5          4.0300   -0.1660   -0.3310 ha        1 32W      0.144500
     41 H21         1.1690    0.8710   -4.3060 ha        1 32W      0.170000
     42 H6          5.0870    0.1360   -2.4890 ha        1 32W      0.170000
     43 H1          4.8490    0.4130   -4.8110 hn        1 32W      0.473800
     44 H14         4.7740    0.1090   -9.5730 ha        1 32W      0.164000
     45 H9          1.1970    3.5600   -6.9760 h4        1 32W      0.043100
     46 H11         1.2690    3.7110   -9.5160 ha        1 32W      0.151000
     47 H13         3.9670    1.1210  -11.6960 ha        1 32W      0.156000
     48 H20         4.1140    3.1280  -12.8990 ha        1 32W      0.145500
     49 H17         0.0130    3.1330  -11.4630 ha        1 32W      0.145500
     50 H19         3.2590    4.1130  -15.0590 h4        1 32W      0.031600
     51 H18        -0.6640    4.1240  -13.6840 h4        1 32W      0.031600
     52 HN3         2.8330    0.5400    1.4940 hn        1 32W      0.459800
@<TRIPOS>BOND
     1    1    2 2   
     2    2    3 1   
     3    2    8 1   
     4    3    4 1   
     5    3   31 1   
     6    3   52 1   
     7    4    5 1   
     8    4   32 1   
     9    4   33 1   
    10    5    6 1   
    11    5   34 1   
    12    5   35 1   
    13    6    7 1   
    14    7   36 1   
    15    7   37 1   
    16    7   38 1   
    17    8    9 ar  
    18    8   13 ar  
    19    9   10 ar  
    20    9   39 1   
    21   10   11 ar  
    22   10   41 1   
    23   11   12 ar  
    24   11   14 1   
    25   12   13 ar  
    26   12   42 1   
    27   13   40 1   
    28   14   15 1   
    29   14   43 1   
    30   15   16 ar  
    31   15   20 ar  
    32   16   17 ar  
    33   17   18 ar  
    34   17   21 ar  
    35   18   19 ar  
    36   18   24 ar  
    37   19   20 ar  
    38   19   45 1   
    39   21   22 ar  
    40   21   44 1   
    41   22   23 ar  
    42   22   47 1   
    43   23   24 ar  
    44   23   25 1   
    45   24   46 1   
    46   25   26 ar  
    47   25   30 ar  
    48   26   27 ar  
    49   26   48 1   
    50   27   28 ar  
    51   27   50 1   
    52   28   29 ar  
    53   29   30 ar  
    54   29   51 1   
    55   30   49 1   
@<TRIPOS>SUBSTRUCTURE
     1 32W         1 TEMP              0 ****  ****    0 ROOT
