@<TRIPOS>MOLECULE
32W
   51    45     1     0     0
SMALL
bcc


@<TRIPOS>ATOM
      1 O1         -0.0270   -3.0690    5.8670 o         1 32W     -0.360000
      2 C3         -0.4250   -2.5100    4.9390 c1        1 32W      0.343000
      3 N          -1.6220   -1.6820    5.0500 n2        1 32W     -0.374000
      4 C2         -2.0440   -1.2060    6.3540 c3        1 32W     -0.032000
      5 C1         -3.1860   -0.3580    6.2130 c3        1 32W     -0.051000
      6 O          -3.5270    0.2220    7.5160 os        1 32W     -0.277000
      7 C          -4.2410    1.4050    7.4280 c3        1 32W     -0.072000
      8 C4          0.4220   -2.5000    3.6050 c2        1 32W     -0.136000
      9 C22         1.4540   -1.6060    3.4570 c2        1 32W     -0.092000
     10 C21         2.1270   -1.5230    2.2500 c1        1 32W     -0.120000
     11 C7          1.7610   -2.3340    1.2020 c1        1 32W      0.075000
     12 C6          0.7340   -3.2200    1.3560 c1        1 32W     -0.176000
     13 C5          0.0590   -3.3010    2.5700 c1        1 32W     -0.064000
     14 N1          2.4420   -2.2380   -0.0570 n3        1 32W     -0.233000
     15 C8          1.9880   -1.2850   -1.0590 c2        1 32W      0.157000
     16 N3          2.0910   -1.5460   -2.3990 n2        1 32W     -0.225000
     17 C15         1.8000   -0.5720   -3.3070 c1        1 32W      0.071000
     18 C10         1.4090    0.6500   -2.8820 c1        1 32W     -0.183000
     19 C9          1.3040    0.9120   -1.5200 c1        1 32W     -0.019500
     20 N2          1.5920   -0.0480   -0.6290 n1        1 32W     -0.191000
     21 C14         1.8370   -0.8590   -4.6880 c1        1 32W     -0.124000
     22 C13         1.4760    0.1000   -5.5970 c1        1 32W     -0.083000
     23 C12         1.0760    1.3490   -5.1600 c1        1 32W     -0.067000
     24 C11         1.0410    1.6300   -3.8100 c1        1 32W     -0.019500
     25 C16         0.6920    2.3310   -6.2530 c2        1 32W      0.003000
     26 C20        -0.6250    2.5170   -6.5700 c2        1 32W     -0.175000
     27 C19        -0.9890    3.5040   -7.4840 c1        1 32W     -0.070000
     28 N4         -0.0310    4.2850   -8.0650 n1        1 32W     -0.135000
     29 C18         1.2860    4.1030   -7.7530 c1        1 32W     -0.070000
     30 C17         1.6550    3.1200   -6.8410 c1        1 32W     -0.173000
     31 H          -2.1670   -1.5220    4.2810 hn        1 32W      0.222000
     32 H21C       -1.3070   -0.6970    6.7710 h1        1 32W      0.115500
     33 H22C       -2.2790   -1.9880    6.9340 h1        1 32W      0.115500
     34 H11C       -3.9200   -0.8660    5.8920 h1        1 32W      0.071000
     35 H12C       -2.9810    0.3700    5.5690 h1        1 32W      0.071000
     36 HC1        -3.7220    2.0610    6.9260 h1        1 32W      0.073667
     37 HC2        -5.0820    1.2420    6.9730 h1        1 32W      0.073667
     38 HC3        -4.4280    1.7660    8.3740 h1        1 32W      0.073667
     39 H22         1.7180   -1.0200    4.2190 ha        1 32W      0.140000
     40 H5         -0.6290   -3.8970    2.6730 ha        1 32W      0.158000
     41 H21         2.8370   -0.9090    2.1470 ha        1 32W      0.157000
     42 H6          0.4880   -3.7610    0.6590 ha        1 32W      0.140000
     43 H1          3.2030   -2.7960   -0.2350 hn        1 32W      0.241000
     44 H14         2.1180   -1.7420   -4.9950 ha        1 32W      0.157000
     45 H9          1.0180    1.8050   -1.2090 ha        1 32W      0.153500
     46 H11         0.7600    2.5010   -3.5050 ha        1 32W      0.153500
     47 H13         1.4980   -0.0940   -6.5340 ha        1 32W      0.143000
     48 H20        -1.2740    1.9900   -6.1760 ha        1 32W      0.145000
     49 H17         2.6150    2.9870   -6.6150 ha        1 32W      0.147000
     50 H19        -1.9560    3.6410   -7.7160 ha        1 32W      0.161000
     51 H18         1.9630    4.6590   -8.1680 ha        1 32W      0.161000
@<TRIPOS>BOND
     1    1    2 1   
     2    2    8 1   
     3    3    4 1   
     4    3   31 1   
     5    4    5 1   
     6    4   32 1   
     7    4   33 1   
     8    5    6 1   
     9    5   34 1   
    10    5   35 1   
    11    6    7 1   
    12    7   36 1   
    13    7   37 1   
    14    7   38 1   
    15    8    9 1   
    16    8   13 1   
    17    9   10 1   
    18    9   39 1   
    19   10   41 1   
    20   11   12 1   
    21   11   14 1   
    22   12   42 1   
    23   13   40 1   
    24   14   15 1   
    25   14   43 1   
    26   15   16 1   
    27   15   20 1   
    28   16   17 1   
    29   17   21 1   
    30   18   19 1   
    31   18   24 1   
    32   19   45 1   
    33   21   44 1   
    34   22   23 1   
    35   22   47 1   
    36   23   25 1   
    37   24   46 1   
    38   25   26 1   
    39   25   30 1   
    40   26   27 1   
    41   26   48 1   
    42   27   50 1   
    43   28   29 1   
    44   29   51 1   
    45   30   49 1   
@<TRIPOS>SUBSTRUCTURE
     1 32W         1 TEMP              0 ****  ****    0 ROOT
