@<TRIPOS>MOLECULE
32W
   53    56     1     0     0
SMALL
bcc


@<TRIPOS>ATOM
      1 O1          0.5940   -2.4800   -0.4330 o         1 32W     -0.384100
      2 C3          1.4760   -1.6380   -0.3360 c         1 32W      0.557700
      3 N           1.6270   -1.0110    1.0270 n4        1 32W     -0.672800
      4 C2          0.7760    0.2160    1.1700 c3        1 32W      0.105800
      5 C1          1.3650    1.2100    2.1750 c3        1 32W      0.099400
      6 O           2.6870    1.4920    1.7240 os        1 32W     -0.488600
      7 C           3.3280    2.5110    2.4910 c3        1 32W      0.117700
      8 C4          2.4080   -1.2120   -1.3950 ca        1 32W     -0.153600
      9 C22         2.5340   -2.0760   -2.4970 ca        1 32W     -0.055000
     10 C21         3.3860   -1.7530   -3.5520 ca        1 32W     -0.092000
     11 C7          4.1140   -0.5530   -3.5030 ca        1 32W      0.031600
     12 C6          3.9760    0.3270   -2.4140 ca        1 32W     -0.092000
     13 C5          3.1260   -0.0100   -1.3610 ca        1 32W     -0.055000
     14 N1          5.0320   -0.2180   -4.5970 n4        1 32W     -0.618100
     15 C8          4.3720    0.6640   -5.6210 ca        1 32W      0.667900
     16 N3          4.0180    0.0770   -6.7740 nb        1 32W     -0.625000
     17 C15         3.4560    0.9100   -7.7230 ca        1 32W      0.399600
     18 C10         3.2650    2.3090   -7.4540 ca        1 32W     -0.230600
     19 C9          3.6780    2.7840   -6.1600 ca        1 32W      0.503200
     20 N2          4.2190    2.0020   -5.2380 nb        1 32W     -0.702000
     21 C14         3.0620    0.4000   -8.9960 ca        1 32W     -0.151300
     22 C13         2.5220    1.2490   -9.9340 ca        1 32W     -0.073000
     23 C12         2.3360    2.6330   -9.6690 cp        1 32W      0.041000
     24 C11         2.7060    3.1480   -8.4330 ca        1 32W     -0.098000
     25 C16         1.7620    3.4970  -10.6970 cp        1 32W     -0.055000
     26 C20         2.1090    3.3340  -12.0460 ca        1 32W     -0.226300
     27 C19         1.5320    4.1960  -12.9970 ca        1 32W      0.410700
     28 N4          0.6560    5.1690  -12.6830 nb        1 32W     -0.624000
     29 C18         0.3280    5.3140  -11.3850 ca        1 32W      0.410700
     30 C17         0.8530    4.5100  -10.3570 ca        1 32W     -0.226300
     31 H           2.6120   -0.7490    1.1840 hn        1 32W      0.476300
     32 H21C        0.7070    0.7100    0.1580 hx        1 32W      0.120200
     33 H22C       -0.2560   -0.0970    1.5010 hx        1 32W      0.120200
     34 H11C        0.7340    2.1400    2.1670 h1        1 32W      0.088200
     35 H12C        1.3980    0.7870    3.2150 h1        1 32W      0.088200
     36 HC1         4.3430    2.5990    2.0280 h1        1 32W      0.064033
     37 HC2         2.7640    3.4720    2.4000 h1        1 32W      0.064033
     38 HC3         3.4040    2.1990    3.5610 h1        1 32W      0.064033
     39 H22         1.9520   -3.0180   -2.5340 ha        1 32W      0.192000
     40 H5          3.0330    0.7060   -0.5210 ha        1 32W      0.192000
     41 H21         3.4640   -2.4470   -4.4100 ha        1 32W      0.193000
     42 H6          4.5180    1.2910   -2.3830 ha        1 32W      0.193000
     43 H1          5.3540   -1.0850   -5.0570 hn        1 32W      0.486300
     44 H14         3.1980   -0.6720   -9.2210 ha        1 32W      0.176000
     45 H9          3.5560    3.8540   -5.8900 h4        1 32W      0.069100
     46 H11         2.5750    4.2220   -8.2160 ha        1 32W      0.170000
     47 H13         2.2150    0.8540  -10.9190 ha        1 32W      0.178000
     48 H20         2.8250    2.5640  -12.3650 ha        1 32W      0.146000
     49 H17         0.5410    4.6700   -9.3170 ha        1 32W      0.146000
     50 H19         1.7840    4.1030  -14.0710 h4        1 32W      0.044600
     51 H18        -0.3960    6.1200  -11.1590 h4        1 32W      0.044600
     52 HN3         1.3520   -1.6970    1.7450 hn        1 32W      0.476300
     53 H12         5.8490    0.2890   -4.2200 hn        1 32W      0.486300
@<TRIPOS>BOND
     1    1    2 2   
     2    2    3 1   
     3    2    8 1   
     4    3    4 1   
     5    3   31 1   
     6    3   52 1   
     7    4    5 1   
     8    4   32 1   
     9    4   33 1   
    10    5    6 1   
    11    5   34 1   
    12    5   35 1   
    13    6    7 1   
    14    7   36 1   
    15    7   37 1   
    16    7   38 1   
    17    8    9 ar  
    18    8   13 ar  
    19    9   10 ar  
    20    9   39 1   
    21   10   11 ar  
    22   10   41 1   
    23   11   12 ar  
    24   11   14 1   
    25   12   13 ar  
    26   12   42 1   
    27   13   40 1   
    28   14   15 1   
    29   14   43 1   
    30   14   53 1   
    31   15   16 ar  
    32   15   20 ar  
    33   16   17 ar  
    34   17   18 ar  
    35   17   21 ar  
    36   18   19 ar  
    37   18   24 ar  
    38   19   20 ar  
    39   19   45 1   
    40   21   22 ar  
    41   21   44 1   
    42   22   23 ar  
    43   22   47 1   
    44   23   24 ar  
    45   23   25 1   
    46   24   46 1   
    47   25   26 ar  
    48   25   30 ar  
    49   26   27 ar  
    50   26   48 1   
    51   27   28 ar  
    52   27   50 1   
    53   28   29 ar  
    54   29   30 ar  
    55   29   51 1   
    56   30   49 1   
@<TRIPOS>SUBSTRUCTURE
     1 32W         1 TEMP              0 ****  ****    0 ROOT
