@<TRIPOS>MOLECULE
32X
   20    20     1     0     0
SMALL
bcc


@<TRIPOS>ATOM
      1 C10        -1.6750   -1.8940    1.9820 c1        1 32X      0.201000
      2 C11         1.8760    1.0490   -0.0670 c3        1 32X     -0.233000
      3 C12         2.1910    0.4580    1.2510 c2        1 32X     -0.001000
      4 C02         3.6660    0.3580    1.5900 c3        1 32X     -0.023000
      5 C03         3.9350   -0.2990    2.9140 c2        1 32X     -0.072000
      6 C04         2.9410   -0.7050    3.7320 c2        1 32X     -0.207000
      7 C05         1.5680   -0.6830    3.3390 c1        1 32X     -0.028000
      8 C06         1.2500    0.0260    2.1350 c2        1 32X     -0.205000
      9 C07        -0.2100    0.2240    1.8890 c2        1 32X      0.435000
     10 O08        -0.7190    1.3320    1.6820 o         1 32X     -0.289000
     11 N09        -1.0050   -0.9170    1.9120 n2        1 32X     -0.371000
     12 H1          0.8400    1.4760   -0.0870 hc        1 32X      0.111333
     13 H2          1.9450    0.2630   -0.8630 hc        1 32X      0.111333
     14 H3          2.5930    1.8700   -0.3190 hc        1 32X      0.111333
     15 H4          4.3700   -1.1640    0.4340 hn        1 32X      0.159000
     16 H5          4.3400    0.2840   -0.3260 hn        1 32X      0.159000
     17 H6          3.9870    1.4480    1.7380 h1        1 32X      0.153000
     18 H7          5.0010   -0.4100    3.1770 ha        1 32X      0.152000
     19 H8          3.1620   -1.1260    4.7280 ha        1 32X      0.160000
     20 N01         4.5150   -0.1800    0.5440 n3        1 32X     -0.323000
@<TRIPOS>BOND
     1    1   11 1   
     2    2    3 1   
     3    2   12 1   
     4    2   13 1   
     5    2   14 1   
     6    3    4 1   
     7    3    8 1   
     8    4    5 1   
     9    4   17 1   
    10    4   20 1   
    11    5    6 1   
    12    5   18 1   
    13    6    7 1   
    14    6   19 1   
    15    7    8 1   
    16    8    9 1   
    17    9   10 1   
    18    9   11 1   
    19   15   20 1   
    20   16   20 1   
@<TRIPOS>SUBSTRUCTURE
     1 32X         1 TEMP              0 ****  ****    0 ROOT
