@<TRIPOS>MOLECULE
32Y
   19    19     1     0     0
SMALL
bcc


@<TRIPOS>ATOM
      1 C10         0.1730    0.0820   -0.1920 ce        1 32Y      0.079000
      2 C11         1.5420    0.0570   -0.0290 cd        1 32Y     -0.228200
      3 C12         2.1420    0.1140    1.2820 cd        1 32Y     -0.016200
      4 C02         3.5060    0.0440    1.4650 cc        1 32Y      0.134000
      5 C03         4.3710   -0.0600    0.2940 cc        1 32Y     -0.085000
      6 C04         3.8600   -0.0940   -0.9500 cd        1 32Y     -0.204200
      7 C05         2.4190   -0.0350   -1.1880 c         1 32Y      0.570500
      8 O06         1.9830   -0.0680   -2.3690 o         1 32Y     -0.619100
      9 C07        -0.1390   -0.0180   -2.6460 c1        1 32Y      0.706600
     10 O08         0.0190   -0.0650   -3.8160 o         1 32Y     -0.343500
     11 C09        -0.5810    0.0430   -1.3750 ce        1 32Y     -0.442100
     12 I13         0.9330    0.3020    2.9090 i         1 32Y     -0.153800
     13 H1         -0.4540    0.1380    0.7250 ha        1 32Y      0.149000
     14 H2          3.5630    0.3100    3.4830 hn        1 32Y      0.401300
     15 H3          5.0560    0.3190    2.7360 hn        1 32Y      0.401300
     16 H4          5.4610   -0.1170    0.4550 ha        1 32Y      0.139000
     17 H5          4.4990   -0.1700   -1.8440 ha        1 32Y      0.157000
     18 H6         -1.6830    0.0640   -1.2760 ha        1 32Y      0.177000
     19 N01         4.1170   -0.0110    2.7180 nv        1 32Y     -0.821600
@<TRIPOS>BOND
     1    1    2 2   
     2    1   11 1   
     3    1   13 1   
     4    2    3 1   
     5    2    7 1   
     6    3    4 2   
     7    3   12 1   
     8    4    5 1   
     9    4   19 1   
    10    5    6 2   
    11    5   16 1   
    12    6    7 1   
    13    6   17 1   
    14    7    8 2   
    15    9   10 2   
    16    9   11 2   
    17   11   18 1   
    18   14   19 1   
    19   15   19 1   
@<TRIPOS>SUBSTRUCTURE
     1 32Y         1 TEMP              0 ****  ****    0 ROOT
