@<TRIPOS>MOLECULE
32Y
   19    20     1     0     0
SMALL
bcc


@<TRIPOS>ATOM
      1 C10        -0.1010   -0.3080    0.1880 c2        1 32Y     -0.447000
      2 C11         1.3410   -0.1970    0.1570 ca        1 32Y      0.070000
      3 C12         2.0200    0.0900    1.3570 ca        1 32Y     -0.361000
      4 C02         3.4240    0.1870    1.4150 ca        1 32Y      0.147000
      5 C03         4.1520    0.0030    0.2050 ca        1 32Y     -0.208000
      6 C04         3.4960   -0.2630   -0.9830 ca        1 32Y     -0.050000
      7 C05         2.0960   -0.3550   -1.0130 ca        1 32Y     -0.026000
      8 O06         1.5050   -0.7160   -2.2210 os        1 32Y     -0.208000
      9 C07         0.7070    0.2490   -2.8120 c2        1 32Y      0.248000
     10 O08         0.2380   -0.1140   -3.8830 o         1 32Y     -0.287000
     11 C09        -0.8740   -0.1430    1.2660 c1        1 32Y      0.121000
     12 I13         0.7680    0.3120    2.9370 i         1 32Y      0.281000
     13 H1         -0.5970   -0.5920   -0.7620 ha        1 32Y      0.192000
     14 H2          3.5860    0.7790    3.3650 hn        1 32Y      0.214500
     15 H3          5.0490    0.6570    2.5420 hn        1 32Y      0.214500
     16 H4          5.2510    0.0630    0.2150 ha        1 32Y      0.145000
     17 H5          4.0640   -0.4140   -1.9150 ha        1 32Y      0.157000
     18 H6          0.5700    1.2090   -2.2840 h5        1 32Y      0.150000
     19 N01         4.0950    0.3910    2.6070 nh        1 32Y     -0.353000
@<TRIPOS>BOND
     1    1    2 1   
     2    1   11 1   
     3    1   13 1   
     4    2    3 1   
     5    2    7 1   
     6    3    4 1   
     7    3   12 1   
     8    4    5 1   
     9    4   19 1   
    10    5    6 1   
    11    5   16 1   
    12    6    7 1   
    13    6   17 1   
    14    7    8 1   
    15    8    9 1   
    16    9   10 1   
    17    9   18 1   
    18   11   12 1   
    19   14   19 1   
    20   15   19 1   
@<TRIPOS>SUBSTRUCTURE
     1 32Y         1 TEMP              0 ****  ****    0 ROOT
