@<TRIPOS>MOLECULE
32Z
   48    50     1     0     0
SMALL
bcc


@<TRIPOS>ATOM
      1 O01         0.0610    0.0800    0.3010 o         1 32Z     -0.646500
      2 C02         1.2970   -0.0380    0.1620 c         1 32Z      0.710100
      3 N03         2.0940   -0.2270    1.2740 n         1 32Z     -0.572900
      4 C04         3.5270   -0.2200    1.2000 c3        1 32Z      0.103000
      5 C05         4.0890   -0.7880   -0.1050 c3        1 32Z     -0.043100
      6 C06         3.3110   -0.3560   -1.2920 ca        1 32Z     -0.069300
      7 C07         3.9040   -0.3180   -2.5740 ca        1 32Z      0.116100
      8 O08         5.2350   -0.6860   -2.6110 os        1 32Z     -0.334900
      9 C09         5.8760   -0.5900   -3.8900 c3        1 32Z      0.129400
     10 C10         7.3210   -0.9980   -3.6580 c3        1 32Z     -0.086400
     11 C11         8.0950   -0.9260   -4.9560 c3        1 32Z     -0.081400
     12 C12         9.5540   -1.3060   -4.7060 c3        1 32Z      0.173800
     13 N13        10.3330   -1.4850   -5.9250 n3        1 32Z     -0.729600
     14 C14        11.6060   -2.1410   -5.6470 c3        1 32Z      0.170300
     15 C15        12.4680   -2.3430   -6.8910 c3        1 32Z     -0.077400
     16 C16        12.6660   -1.0400   -7.6350 c3        1 32Z     -0.078400
     17 C17        11.3280   -0.4070   -7.9450 c3        1 32Z     -0.077400
     18 C18        10.4850   -0.2490   -6.6810 c3        1 32Z      0.170300
     19 C19         3.1580    0.0650   -3.6950 ca        1 32Z     -0.178000
     20 C20         1.8150    0.4080   -3.5450 ca        1 32Z     -0.112000
     21 C21         1.2120    0.3740   -2.2910 ca        1 32Z     -0.104000
     22 C22         1.9600   -0.0060   -1.1710 ca        1 32Z     -0.110600
     23 H031        1.6710   -0.1930    2.1710 hn        1 32Z      0.323500
     24 H041        3.9050    0.8380    1.3240 h1        1 32Z      0.039700
     25 H042        3.9290   -0.8270    2.0610 h1        1 32Z      0.039700
     26 H051        5.1590   -0.4610   -0.2030 hc        1 32Z      0.071200
     27 H052        4.0860   -1.9120   -0.0670 hc        1 32Z      0.071200
     28 H091        5.3730   -1.2840   -4.6140 h1        1 32Z      0.041700
     29 H092        5.8090    0.4640   -4.2670 h1        1 32Z      0.041700
     30 H102        7.3500   -2.0390   -3.2420 hc        1 32Z      0.057200
     31 H101        7.7800   -0.3210   -2.8910 hc        1 32Z      0.057200
     32 H111        8.0340    0.1140   -5.3720 hc        1 32Z      0.050200
     33 H112        7.6390   -1.6190   -5.7100 hc        1 32Z      0.050200
     34 H122        9.5710   -2.2860   -4.1480 h1        1 32Z      0.031200
     35 H121       10.0140   -0.5260   -4.0290 h1        1 32Z      0.031200
     36 H141       11.3750   -3.1500   -5.2030 h1        1 32Z      0.028700
     37 H142       12.2090   -1.5620   -4.8860 h1        1 32Z      0.028700
     38 H151       13.4580   -2.7590   -6.5710 hc        1 32Z      0.047200
     39 H152       11.9840   -3.0930   -7.5690 hc        1 32Z      0.047200
     40 H161       13.2290   -1.2250   -8.5850 hc        1 32Z      0.040200
     41 H162       13.2800   -0.3380   -7.0110 hc        1 32Z      0.040200
     42 H172       10.7770   -1.0380   -8.6890 hc        1 32Z      0.047200
     43 H171       11.4750    0.6070   -8.3990 hc        1 32Z      0.047200
     44 H181        9.4530    0.0900   -6.9810 h1        1 32Z      0.028700
     45 H182       10.9410    0.5690   -6.0470 h1        1 32Z      0.028700
     46 H191        3.6160    0.0970   -4.6940 ha        1 32Z      0.140000
     47 H201        1.2290    0.7060   -4.4270 ha        1 32Z      0.139000
     48 H211        0.1490    0.6370   -2.1620 ha        1 32Z      0.162000
@<TRIPOS>BOND
     1    1    2 2   
     2    2    3 1   
     3    2   22 1   
     4    3    4 1   
     5    3   23 1   
     6    4    5 1   
     7    4   24 1   
     8    4   25 1   
     9    5    6 1   
    10    5   26 1   
    11    5   27 1   
    12    6    7 ar  
    13    6   22 ar  
    14    7    8 1   
    15    7   19 ar  
    16    8    9 1   
    17    9   10 1   
    18    9   28 1   
    19    9   29 1   
    20   10   11 1   
    21   10   30 1   
    22   10   31 1   
    23   11   12 1   
    24   11   32 1   
    25   11   33 1   
    26   12   13 1   
    27   12   34 1   
    28   12   35 1   
    29   13   14 1   
    30   13   18 1   
    31   14   15 1   
    32   14   36 1   
    33   14   37 1   
    34   15   16 1   
    35   15   38 1   
    36   15   39 1   
    37   16   17 1   
    38   16   40 1   
    39   16   41 1   
    40   17   18 1   
    41   17   42 1   
    42   17   43 1   
    43   18   44 1   
    44   18   45 1   
    45   19   20 ar  
    46   19   46 1   
    47   20   21 ar  
    48   20   47 1   
    49   21   22 ar  
    50   21   48 1   
@<TRIPOS>SUBSTRUCTURE
     1 32Z         1 TEMP              0 ****  ****    0 ROOT
