@<TRIPOS>MOLECULE
32Z
   48    50     1     0     0
SMALL
bcc


@<TRIPOS>ATOM
      1 O01         0.0600    0.0700    0.3000 o         1 32Z     -0.646500
      2 C02         1.2950   -0.0450    0.1610 c         1 32Z      0.710100
      3 N03         2.0920   -0.2330    1.2740 n         1 32Z     -0.572900
      4 C04         3.5250   -0.2230    1.2000 c3        1 32Z      0.103000
      5 C05         4.0900   -0.7880   -0.1040 c3        1 32Z     -0.043100
      6 C06         3.3110   -0.3560   -1.2920 ca        1 32Z     -0.069300
      7 C07         3.9050   -0.3170   -2.5730 ca        1 32Z      0.116100
      8 O08         5.2370   -0.6810   -2.6100 os        1 32Z     -0.334900
      9 C09         5.8780   -0.5850   -3.8890 c3        1 32Z      0.129400
     10 C10         7.3240   -0.9900   -3.6550 c3        1 32Z     -0.086400
     11 C11         8.0970   -0.9220   -4.9550 c3        1 32Z     -0.081400
     12 C12         9.5570   -1.2980   -4.7040 c3        1 32Z      0.173800
     13 N13        10.3350   -1.4830   -5.9230 n3        1 32Z     -0.729600
     14 C14        11.6100   -2.1340   -5.6420 c3        1 32Z      0.170300
     15 C15        12.4710   -2.3420   -6.8860 c3        1 32Z     -0.077400
     16 C16        12.6640   -1.0450   -7.6390 c3        1 32Z     -0.078400
     17 C17        11.3230   -0.4170   -7.9520 c3        1 32Z     -0.077400
     18 C18        10.4820   -0.2530   -6.6880 c3        1 32Z      0.170300
     19 C19         3.1590    0.0660   -3.6950 ca        1 32Z     -0.178000
     20 C20         1.8160    0.4060   -3.5440 ca        1 32Z     -0.112000
     21 C21         1.2120    0.3700   -2.2910 ca        1 32Z     -0.104000
     22 C22         1.9590   -0.0100   -1.1710 ca        1 32Z     -0.110600
     23 H031        1.6680   -0.2010    2.1710 hn        1 32Z      0.323500
     24 H041        3.9010    0.8360    1.3260 h1        1 32Z      0.039700
     25 H042        3.9280   -0.8290    2.0610 h1        1 32Z      0.039700
     26 H051        5.1590   -0.4590   -0.2010 hc        1 32Z      0.071200
     27 H052        4.0890   -1.9120   -0.0670 hc        1 32Z      0.071200
     28 H091        5.3770   -1.2810   -4.6110 h1        1 32Z      0.041700
     29 H092        5.8090    0.4690   -4.2660 h1        1 32Z      0.041700
     30 H102        7.3540   -2.0300   -3.2360 hc        1 32Z      0.057200
     31 H101        7.7830   -0.3090   -2.8920 hc        1 32Z      0.057200
     32 H111        8.0330    0.1150   -5.3750 hc        1 32Z      0.050200
     33 H112        7.6420   -1.6200   -5.7050 hc        1 32Z      0.050200
     34 H122        9.5760   -2.2750   -4.1400 h1        1 32Z      0.031200
     35 H121       10.0160   -0.5120   -4.0320 h1        1 32Z      0.031200
     36 H141       11.3820   -3.1400   -5.1900 h1        1 32Z      0.028700
     37 H142       12.2130   -1.5480   -4.8860 h1        1 32Z      0.028700
     38 H151       13.4620   -2.7540   -6.5640 hc        1 32Z      0.047200
     39 H152       11.9880   -3.0990   -7.5570 hc        1 32Z      0.047200
     40 H161       13.2260   -1.2360   -8.5890 hc        1 32Z      0.040200
     41 H162       13.2770   -0.3370   -7.0210 hc        1 32Z      0.040200
     42 H172       10.7730   -1.0560   -8.6910 hc        1 32Z      0.047200
     43 H171       11.4670    0.5930   -8.4140 hc        1 32Z      0.047200
     44 H181        9.4480    0.0810   -6.9890 h1        1 32Z      0.028700
     45 H182       10.9370    0.5710   -6.0610 h1        1 32Z      0.028700
     46 H191        3.6180    0.1000   -4.6930 ha        1 32Z      0.140000
     47 H201        1.2290    0.7040   -4.4270 ha        1 32Z      0.139000
     48 H211        0.1480    0.6300   -2.1630 ha        1 32Z      0.162000
@<TRIPOS>BOND
     1    1    2 2   
     2    2    3 1   
     3    2   22 1   
     4    3    4 1   
     5    3   23 1   
     6    4    5 1   
     7    4   24 1   
     8    4   25 1   
     9    5    6 1   
    10    5   26 1   
    11    5   27 1   
    12    6    7 ar  
    13    6   22 ar  
    14    7    8 1   
    15    7   19 ar  
    16    8    9 1   
    17    9   10 1   
    18    9   28 1   
    19    9   29 1   
    20   10   11 1   
    21   10   30 1   
    22   10   31 1   
    23   11   12 1   
    24   11   32 1   
    25   11   33 1   
    26   12   13 1   
    27   12   34 1   
    28   12   35 1   
    29   13   14 1   
    30   13   18 1   
    31   14   15 1   
    32   14   36 1   
    33   14   37 1   
    34   15   16 1   
    35   15   38 1   
    36   15   39 1   
    37   16   17 1   
    38   16   40 1   
    39   16   41 1   
    40   17   18 1   
    41   17   42 1   
    42   17   43 1   
    43   18   44 1   
    44   18   45 1   
    45   19   20 ar  
    46   19   46 1   
    47   20   21 ar  
    48   20   47 1   
    49   21   22 ar  
    50   21   48 1   
@<TRIPOS>SUBSTRUCTURE
     1 32Z         1 TEMP              0 ****  ****    0 ROOT
