@<TRIPOS>MOLECULE
32Z
   48    50     1     0     0
SMALL
bcc


@<TRIPOS>ATOM
      1 O01         0.0600    0.0710    0.3000 o         1 32Z     -0.646500
      2 C02         1.2950   -0.0440    0.1610 c         1 32Z      0.710100
      3 N03         2.0920   -0.2310    1.2730 ns        1 32Z     -0.572900
      4 C04         3.5250   -0.2220    1.1990 c3        1 32Z      0.103000
      5 C05         4.0890   -0.7890   -0.1050 c3        1 32Z     -0.043100
      6 C06         3.3100   -0.3580   -1.2930 ca        1 32Z     -0.069300
      7 C07         3.9030   -0.3200   -2.5740 ca        1 32Z      0.116100
      8 O08         5.2360   -0.6850   -2.6110 os        1 32Z     -0.334900
      9 C09         5.8770   -0.5890   -3.8900 c3        1 32Z      0.129400
     10 C10         7.3220   -0.9940   -3.6560 c3        1 32Z     -0.086400
     11 C11         8.0960   -0.9230   -4.9550 c3        1 32Z     -0.081400
     12 C12         9.5560   -1.3000   -4.7040 c3        1 32Z      0.173800
     13 N13        10.3350   -1.4820   -5.9230 n3        1 32Z     -0.729600
     14 C14        11.6090   -2.1340   -5.6440 c3        1 32Z      0.170300
     15 C15        12.4710   -2.3400   -6.8870 c3        1 32Z     -0.077400
     16 C16        12.6650   -1.0400   -7.6360 c3        1 32Z     -0.078400
     17 C17        11.3250   -0.4100   -7.9480 c3        1 32Z     -0.077400
     18 C18        10.4830   -0.2490   -6.6850 c3        1 32Z      0.170300
     19 C19         3.1580    0.0620   -3.6960 ca        1 32Z     -0.178000
     20 C20         1.8140    0.4030   -3.5460 ca        1 32Z     -0.112000
     21 C21         1.2110    0.3670   -2.2920 ca        1 32Z     -0.104000
     22 C22         1.9590   -0.0110   -1.1720 ca        1 32Z     -0.110600
     23 H031        1.6690   -0.1980    2.1700 hn        1 32Z      0.323500
     24 H041        3.9010    0.8370    1.3230 h1        1 32Z      0.039700
     25 H042        3.9290   -0.8280    2.0610 h1        1 32Z      0.039700
     26 H051        4.0880   -1.9130   -0.0660 hc        1 32Z      0.071200
     27 H052        5.1580   -0.4600   -0.2030 hc        1 32Z      0.071200
     28 H091        5.3750   -1.2850   -4.6130 h1        1 32Z      0.041700
     29 H092        5.8070    0.4650   -4.2670 h1        1 32Z      0.041700
     30 H102        7.7810   -0.3140   -2.8920 hc        1 32Z      0.057200
     31 H101        7.3530   -2.0340   -3.2380 hc        1 32Z      0.057200
     32 H111        7.6420   -1.6200   -5.7070 hc        1 32Z      0.050200
     33 H112        8.0320    0.1150   -5.3740 hc        1 32Z      0.050200
     34 H122       10.0140   -0.5150   -4.0300 h1        1 32Z      0.031200
     35 H121        9.5750   -2.2770   -4.1420 h1        1 32Z      0.031200
     36 H141       11.3800   -3.1420   -5.1940 h1        1 32Z      0.028700
     37 H142       12.2120   -1.5510   -4.8850 h1        1 32Z      0.028700
     38 H151       11.9870   -3.0940   -7.5610 hc        1 32Z      0.047200
     39 H152       13.4610   -2.7530   -6.5660 hc        1 32Z      0.047200
     40 H161       13.2280   -1.2280   -8.5870 hc        1 32Z      0.040200
     41 H162       13.2780   -0.3350   -7.0160 hc        1 32Z      0.040200
     42 H172       10.7750   -1.0460   -8.6900 hc        1 32Z      0.047200
     43 H171       11.4710    0.6020   -8.4070 hc        1 32Z      0.047200
     44 H181        9.4510    0.0870   -6.9850 h1        1 32Z      0.028700
     45 H182       10.9390    0.5720   -6.0540 h1        1 32Z      0.028700
     46 H191        3.6160    0.0950   -4.6940 ha        1 32Z      0.140000
     47 H201        1.2280    0.7000   -4.4280 ha        1 32Z      0.139000
     48 H211        0.1470    0.6280   -2.1640 ha        1 32Z      0.162000
@<TRIPOS>BOND
     1    1    2 2   
     2    2    3 1   
     3    2   22 1   
     4    3    4 1   
     5    3   23 1   
     6    4    5 1   
     7    4   24 1   
     8    4   25 1   
     9    5    6 1   
    10    5   26 1   
    11    5   27 1   
    12    6    7 ar  
    13    6   22 ar  
    14    7    8 1   
    15    7   19 ar  
    16    8    9 1   
    17    9   10 1   
    18    9   28 1   
    19    9   29 1   
    20   10   11 1   
    21   10   30 1   
    22   10   31 1   
    23   11   12 1   
    24   11   32 1   
    25   11   33 1   
    26   12   13 1   
    27   12   34 1   
    28   12   35 1   
    29   13   14 1   
    30   13   18 1   
    31   14   15 1   
    32   14   36 1   
    33   14   37 1   
    34   15   16 1   
    35   15   38 1   
    36   15   39 1   
    37   16   17 1   
    38   16   40 1   
    39   16   41 1   
    40   17   18 1   
    41   17   42 1   
    42   17   43 1   
    43   18   44 1   
    44   18   45 1   
    45   19   20 ar  
    46   19   46 1   
    47   20   21 ar  
    48   20   47 1   
    49   21   22 ar  
    50   21   48 1   
@<TRIPOS>SUBSTRUCTURE
     1 32Z         1 TEMP              0 ****  ****    0 ROOT
