@<TRIPOS>MOLECULE
330
   51    55     1     0     0
SMALL
bcc


@<TRIPOS>ATOM
      1 C1         -0.0250   -0.0450    0.0580 ca        1 330     -0.134000
      2 C2          1.3790   -0.1630    0.1000 ca        1 330      0.068000
      3 C3          2.0050   -0.2510    1.3410 ca        1 330     -0.122000
      4 C4          1.2760   -0.1950    2.5620 ca        1 330     -0.081000
      5 C5          2.2550   -0.2960    3.6950 c2        1 330      0.367000
      6 C6          3.4550   -0.4250    1.6920 c2        1 330      0.362000
      7 C7          2.1150   -0.1780   -1.1510 c2        1 330     -0.117000
      8 C8          1.8200   -1.2440   -2.2120 c3        1 330      0.104000
      9 C9          1.7300   -0.5750   -3.5790 c2        1 330     -0.154000
     10 C10         2.3070    0.6110   -3.8740 c2        1 330     -0.118000
     11 C11         3.2300    1.1770   -2.8740 c2        1 330     -0.096000
     12 C12         2.8810    0.7760   -1.6590 c1        1 330     -0.064000
     13 C13        -0.0920   -0.0720    2.5540 ca        1 330      0.013000
     14 C14        -0.7480    0.0010    1.2480 ca        1 330      0.023000
     15 C15        -1.1460    0.0140    3.5390 c2        1 330     -0.144000
     16 C16        -2.3680    0.1320    2.8330 c2        1 330      0.016000
     17 C17        -1.1200   -0.0010    4.9560 c2        1 330     -0.066000
     18 C18        -3.6580    0.2430    3.5490 c3        1 330     -0.172000
     19 C19        -2.3120    0.1000    5.6420 c2        1 330     -0.052000
     20 C20        -3.5850    0.2200    5.0080 c1        1 330     -0.049000
     21 C22        -3.6750   -1.2120    0.0370 c3        1 330     -0.229000
     22 C23        -4.7090   -1.0570   -1.0660 c3        1 330     -0.021000
     23 O1          2.0460   -0.2750    4.9120 o         1 330     -0.312000
     24 N1          3.5320   -0.4280    3.1090 ns        1 330     -0.403000
     25 O2          4.4350   -0.5730    0.9610 o         1 330     -0.285000
     26 O3         -2.3620    0.0900    7.0220 oh        1 330     -0.222000
     27 O5          2.7760   -2.2850   -2.3510 os        1 330     -0.256000
     28 C24         2.9960   -3.0180   -1.1560 c3        1 330     -0.079000
     29 N2         -2.1340    0.1480    1.4580 na        1 330     -0.161000
     30 O4         -5.3510   -2.2830   -1.3480 oh        1 330     -0.314000
     31 H1         -0.5330    0.0250   -0.9150 ha        1 330      0.147000
     32 H9          0.8170   -1.6880   -1.9450 h1        1 330      0.094000
     33 H10         1.1870   -1.1620   -4.3320 ha        1 330      0.144000
     34 H11         2.2120    1.1020   -4.8500 ha        1 330      0.145000
     35 H12         4.1290    1.7170   -3.1780 ha        1 330      0.171000
     36 H17        -0.1430   -0.0920    5.4640 ha        1 330      0.172000
     37 H18        -4.1830    1.2060    3.2690 hc        1 330      0.167500
     38 H20        -4.3510   -0.5990    3.2450 hc        1 330      0.167500
     39 H211       -4.0000    0.7920    0.8120 h1        1 330      0.106500
     40 H212       -2.7050    0.6670   -0.4750 h1        1 330      0.106500
     41 H221       -4.1470   -1.7200    0.9190 hc        1 330      0.101500
     42 H222       -2.8390   -1.8690   -0.3180 hc        1 330      0.101500
     43 H231       -5.5420   -0.3730   -0.7460 h1        1 330      0.088000
     44 H232       -4.2300   -0.6450   -1.9950 h1        1 330      0.088000
     45 HN1         4.3740   -0.5150    3.6190 hn        1 330      0.263000
     46 HO3        -1.4540    0.0100    7.3500 ho        1 330      0.205000
     47 H241        3.3670   -2.3420   -0.3450 h1        1 330      0.081667
     48 H242        3.7810   -3.7640   -1.4380 h1        1 330      0.081667
     49 H243        2.0580   -3.5350   -0.8350 h1        1 330      0.081667
     50 HO4        -4.6720   -2.9070   -1.6310 ho        1 330      0.200000
     51 C21        -3.1400    0.1630    0.4360 c3        1 330     -0.016000
@<TRIPOS>BOND
     1    1    2 1   
     2    1   14 1   
     3    1   31 1   
     4    2    3 1   
     5    2    7 1   
     6    3    4 1   
     7    3    6 1   
     8    4    5 1   
     9    4   13 1   
    10    5   23 1   
    11    5   24 1   
    12    6   24 1   
    13    6   25 1   
    14    7    8 1   
    15    7   12 1   
    16    8    9 1   
    17    8   27 1   
    18    8   32 1   
    19    9   10 1   
    20    9   33 1   
    21   10   11 1   
    22   10   34 1   
    23   11   12 1   
    24   11   35 1   
    25   13   14 1   
    26   13   15 1   
    27   14   29 1   
    28   15   16 1   
    29   15   17 1   
    30   16   18 1   
    31   16   29 1   
    32   17   19 1   
    33   17   36 1   
    34   18   20 1   
    35   18   37 1   
    36   18   38 1   
    37   19   20 1   
    38   19   26 1   
    39   21   22 1   
    40   21   41 1   
    41   21   42 1   
    42   21   51 1   
    43   22   30 1   
    44   22   43 1   
    45   22   44 1   
    46   24   45 1   
    47   26   46 1   
    48   27   28 1   
    49   28   47 1   
    50   28   48 1   
    51   28   49 1   
    52   29   51 1   
    53   30   50 1   
    54   39   51 1   
    55   40   51 1   
@<TRIPOS>SUBSTRUCTURE
     1 330         1 TEMP              0 ****  ****    0 ROOT
