@<TRIPOS>MOLECULE
330
   51    55     1     0     0
SMALL
bcc


@<TRIPOS>ATOM
      1 C1         -0.7500   -6.6660    1.4800 ca        1 330     -0.127000
      2 C2         -1.3470   -7.2500    2.6230 cp        1 330      0.084000
      3 C3         -1.7160   -6.4160    3.6710 ca        1 330     -0.163600
      4 C4         -1.5430   -4.9960    3.6010 ca        1 330     -0.097600
      5 C5         -2.0640   -4.3970    4.8720 c         1 330      0.730100
      6 C6         -2.3550   -6.7140    4.9950 c         1 330      0.728100
      7 C7         -1.5620   -8.6970    2.6080 cp        1 330     -0.094000
      8 C8         -2.1000   -9.3430    1.4670 ca        1 330      0.146100
      9 C9         -2.3030  -10.7290    1.4590 ca        1 330     -0.211000
     10 C10        -1.9510  -11.4840    2.5760 ca        1 330     -0.080000
     11 C11        -1.4060  -10.8660    3.6990 ca        1 330     -0.164000
     12 C12        -1.2200   -9.4850    3.7130 ca        1 330     -0.053000
     13 C13        -1.0090   -4.4110    2.4860 cp        1 330     -0.005000
     14 C14        -0.6000   -5.2890    1.3950 ca        1 330     -0.005200
     15 C15        -0.7430   -3.0540    2.0380 cp        1 330     -0.048000
     16 C16        -0.2030   -3.1550    0.7030 ca        1 330     -0.046200
     17 C17        -0.9140   -1.8190    2.6400 ca        1 330     -0.147000
     18 C18         0.1500   -2.0040   -0.0040 ca        1 330     -0.121000
     19 C19        -0.5550   -0.6770    1.9070 ca        1 330      0.100100
     20 C20        -0.0310   -0.7650    0.6050 ca        1 330     -0.124000
     21 C22        -1.5150   -5.4010   -1.4960 c3        1 330     -0.165400
     22 C23        -1.4420   -5.9920   -2.8930 c3        1 330      0.131400
     23 O1         -2.1040   -3.2130    5.2230 o         1 330     -0.592500
     24 N1         -2.5380   -5.4710    5.6550 n         1 330     -0.624500
     25 O2         -2.6820   -7.7900    5.5020 o         1 330     -0.577500
     26 O3         -0.6930    0.5950    2.4180 oh        1 330     -0.499100
     27 O5         -2.4000   -8.5270    0.3930 os        1 330     -0.337900
     28 C24        -2.9620   -9.1540   -0.7550 c3        1 330      0.104700
     29 N2         -0.0360   -4.5230    0.3420 na        1 330     -0.052300
     30 O4         -2.6250   -6.7020   -3.2080 oh        1 330     -0.601800
     31 H1         -0.4380   -7.3190    0.6490 ha        1 330      0.162000
     32 H9         -2.7380  -11.2270    0.5820 ha        1 330      0.140000
     33 H10        -2.1080  -12.5730    2.5660 ha        1 330      0.134000
     34 H11        -1.1320  -11.4620    4.5800 ha        1 330      0.140000
     35 H12        -0.8150   -8.9980    4.6150 ha        1 330      0.149000
     36 H17        -1.3190   -1.7440    3.6630 ha        1 330      0.174000
     37 H18         0.5690   -2.0610   -1.0180 ha        1 330      0.141000
     38 H20         0.2360    0.1610    0.0740 ha        1 330      0.153000
     39 H211        0.5690   -5.8690   -1.1080 h1        1 330      0.063200
     40 H212        0.2680   -4.1630   -1.6900 h1        1 330      0.063200
     41 H221       -2.2090   -4.5210   -1.4920 hc        1 330      0.068200
     42 H222       -1.9440   -6.1730   -0.7990 hc        1 330      0.068200
     43 H231       -0.6290   -6.7650   -2.9650 h1        1 330      0.047700
     44 H232       -1.2560   -5.1890   -3.6550 h1        1 330      0.047700
     45 HN1        -2.9450   -5.3730    6.5500 hn        1 330      0.346500
     46 HO3        -1.0500    0.5180    3.3150 ho        1 330      0.425000
     47 H241       -3.9600   -9.5920   -0.5140 h1        1 330      0.051700
     48 H242       -2.2740   -9.9380   -1.1550 h1        1 330      0.051700
     49 H243       -3.0590   -8.3080   -1.4880 h1        1 330      0.051700
     50 HO4        -3.3590   -6.0780   -3.1490 ho        1 330      0.402000
     51 C21        -0.1240   -4.9810   -1.0220 c3        1 330      0.033300
@<TRIPOS>BOND
     1    1    2 ar  
     2    1   14 ar  
     3    1   31 1   
     4    2    3 ar  
     5    2    7 1   
     6    3    4 ar  
     7    3    6 1   
     8    4    5 1   
     9    4   13 ar  
    10    5   23 2   
    11    5   24 1   
    12    6   24 1   
    13    6   25 2   
    14    7    8 ar  
    15    7   12 ar  
    16    8    9 ar  
    17    8   27 1   
    18    9   10 ar  
    19    9   32 1   
    20   10   11 ar  
    21   10   33 1   
    22   11   12 ar  
    23   11   34 1   
    24   12   35 1   
    25   13   14 ar  
    26   13   15 1   
    27   14   29 1   
    28   15   16 ar  
    29   15   17 ar  
    30   16   18 ar  
    31   16   29 1   
    32   17   19 ar  
    33   17   36 1   
    34   18   20 ar  
    35   18   37 1   
    36   19   20 ar  
    37   19   26 1   
    38   20   38 1   
    39   21   22 1   
    40   21   41 1   
    41   21   42 1   
    42   21   51 1   
    43   22   30 1   
    44   22   43 1   
    45   22   44 1   
    46   24   45 1   
    47   26   46 1   
    48   27   28 1   
    49   28   47 1   
    50   28   48 1   
    51   28   49 1   
    52   29   51 1   
    53   30   50 1   
    54   39   51 1   
    55   40   51 1   
@<TRIPOS>SUBSTRUCTURE
     1 330         1 TEMP              0 ****  ****    0 ROOT
