@<TRIPOS>MOLECULE
330
   51    55     1     0     0
SMALL
bcc


@<TRIPOS>ATOM
      1 C1         -0.2010   -0.1010   -0.0410 ca        1 330     -0.107000
      2 C2          1.2030   -0.2350   -0.0910 ca        1 330      0.088000
      3 C3          1.9060   -0.3160    1.1090 ca        1 330     -0.145000
      4 C4          1.2540   -0.2830    2.3760 ca        1 330     -0.088000
      5 C5          2.3030   -0.3480    3.4430 c2        1 330      0.368000
      6 C6          3.3810   -0.4060    1.3700 c2        1 330      0.363000
      7 C7          1.8550   -0.1480   -1.4000 c2        1 330     -0.236000
      8 C8          2.6090   -1.1380   -1.9980 c2        1 330      0.184000
      9 C9          3.4260   -0.8670   -3.2270 c3        1 330     -0.149000
     10 C10         3.2280    0.4770   -3.8080 c2        1 330     -0.106000
     11 C11         2.3900    1.3750   -3.2500 c2        1 330     -0.184000
     12 C12         1.6260    1.0790   -2.0750 c1        1 330     -0.079000
     13 C13        -0.1130   -0.1750    2.4540 ca        1 330      0.013000
     14 C14        -0.8470   -0.0750    1.1910 ca        1 330      0.018000
     15 C15        -1.1050   -0.1090    3.5020 c2        1 330     -0.150000
     16 C16        -2.3680    0.0300    2.8740 c2        1 330      0.021000
     17 C17        -0.9940   -0.1550    4.9130 c2        1 330     -0.062000
     18 C18        -3.6120    0.1320    3.6700 c3        1 330     -0.171000
     19 C19        -2.1430   -0.0680    5.6730 c2        1 330     -0.056000
     20 C20        -3.4500    0.0720    5.1200 c1        1 330     -0.054000
     21 C22        -3.8690   -1.1490    0.0650 c3        1 330     -0.227000
     22 C23        -4.9650   -0.8900   -0.9560 c3        1 330     -0.022000
     23 O1          2.1760   -0.3480    4.6710 o         1 330     -0.312000
     24 N1          3.5490   -0.4210    2.7770 n         1 330     -0.403000
     25 O2          4.3210   -0.4830    0.5740 o         1 330     -0.310000
     26 O3         -2.1090   -0.1120    7.0530 oh        1 330     -0.224000
     27 O5          2.7040   -2.4610   -1.7020 os        1 330     -0.201000
     28 C24         2.0440   -2.9720   -0.5460 c3        1 330     -0.079000
     29 N2         -2.2180    0.0680    1.4890 na        1 330     -0.160000
     30 O4         -5.6310   -2.0850   -1.3110 oh        1 330     -0.315000
     31 H1         -0.7550    0.0210   -0.9850 ha        1 330      0.159000
     32 H9          3.2130   -1.6580   -4.0010 hc        1 330      0.150500
     33 H10         4.5110   -0.9830   -2.9290 hc        1 330      0.150500
     34 H11         3.8070    0.6860   -4.7220 ha        1 330      0.135000
     35 H12         2.2530    2.3780   -3.6850 ha        1 330      0.150000
     36 H17         0.0110   -0.2570    5.3600 ha        1 330      0.170000
     37 H18        -4.1430    1.1060    3.4460 hc        1 330      0.166500
     38 H20        -4.3290   -0.6960    3.3860 hc        1 330      0.166500
     39 H211       -4.0970    0.8040    0.9900 h1        1 330      0.108500
     40 H212       -2.8740    0.7360   -0.3700 h1        1 330      0.108500
     41 H221       -4.2970   -1.7130    0.9350 hc        1 330      0.100000
     42 H222       -3.0730   -1.7940   -0.3920 hc        1 330      0.100000
     43 H231       -5.7730   -0.2390   -0.5240 h1        1 330      0.089000
     44 H232       -4.5400   -0.3950   -1.8700 h1        1 330      0.089000
     45 HN1         4.4250   -0.4350    3.2340 hn        1 330      0.261000
     46 HO3        -1.1810   -0.1830    7.3220 ho        1 330      0.204000
     47 H241        2.5640   -2.6120    0.3760 h1        1 330      0.098333
     48 H242        2.1550   -4.0810   -0.6600 h1        1 330      0.098333
     49 H243        0.9680   -2.6740   -0.5390 h1        1 330      0.098333
     50 HO4        -4.9760   -2.6760   -1.7000 ho        1 330      0.199000
     51 C21        -3.2760    0.1810    0.5270 c3        1 330     -0.018000
@<TRIPOS>BOND
     1    1    2 1   
     2    1   14 1   
     3    1   31 1   
     4    2    3 1   
     5    2    7 1   
     6    3    4 1   
     7    3    6 1   
     8    4    5 1   
     9    4   13 1   
    10    5   23 1   
    11    5   24 1   
    12    6   24 1   
    13    6   25 1   
    14    7    8 1   
    15    7   12 1   
    16    8    9 1   
    17    8   27 1   
    18    9   10 1   
    19    9   32 1   
    20    9   33 1   
    21   10   11 1   
    22   10   34 1   
    23   11   12 1   
    24   11   35 1   
    25   13   14 1   
    26   13   15 1   
    27   14   29 1   
    28   15   16 1   
    29   15   17 1   
    30   16   18 1   
    31   16   29 1   
    32   17   19 1   
    33   17   36 1   
    34   18   20 1   
    35   18   37 1   
    36   18   38 1   
    37   19   20 1   
    38   19   26 1   
    39   21   22 1   
    40   21   41 1   
    41   21   42 1   
    42   21   51 1   
    43   22   30 1   
    44   22   43 1   
    45   22   44 1   
    46   24   45 1   
    47   26   46 1   
    48   27   28 1   
    49   28   47 1   
    50   28   48 1   
    51   28   49 1   
    52   29   51 1   
    53   30   50 1   
    54   39   51 1   
    55   40   51 1   
@<TRIPOS>SUBSTRUCTURE
     1 330         1 TEMP              0 ****  ****    0 ROOT
