@<TRIPOS>MOLECULE
330
   51    55     1     0     0
SMALL
bcc


@<TRIPOS>ATOM
      1 C1         -0.0820   -0.0250    0.0860 ca        1 330     -0.132000
      2 C2          1.3250   -0.1240    0.1140 ca        1 330      0.069000
      3 C3          1.9640   -0.1920    1.3500 ca        1 330     -0.121000
      4 C4          1.2460   -0.1370    2.5780 ca        1 330     -0.081000
      5 C5          2.2360   -0.2160    3.7020 c2        1 330      0.367000
      6 C6          3.4190   -0.3430    1.6880 c2        1 330      0.361000
      7 C7          2.0480   -0.1410   -1.1440 c2        1 330     -0.117000
      8 C8          1.7600   -1.2250   -2.1890 c3        1 330      0.103000
      9 C9          1.6450   -0.5740   -3.5630 c2        1 330     -0.152000
     10 C10         2.1980    0.6180   -3.8780 c2        1 330     -0.120000
     11 C11         3.1220    1.2110   -2.8940 c2        1 330     -0.095000
     12 C12         2.7920    0.8200   -1.6710 c1        1 330     -0.066000
     13 C13        -0.1240   -0.0330    2.5830 ca        1 330      0.012000
     14 C14        -0.7930    0.0220    1.2820 ca        1 330      0.022000
     15 C15        -1.1700    0.0440    3.5760 c2        1 330     -0.144000
     16 C16        -2.4010    0.1400    2.8810 c2        1 330      0.016000
     17 C17        -1.1310    0.0370    4.9930 c2        1 330     -0.064000
     18 C18        -3.6860    0.2370    3.6080 c3        1 330     -0.171000
     19 C19        -2.3190    0.1220    5.6890 c2        1 330     -0.053000
     20 C20        -3.5980    0.2180    5.0660 c1        1 330     -0.052000
     21 C22        -3.5900   -1.2300   -0.0280 c3        1 330     -0.229000
     22 C23        -4.6740   -1.0870   -1.0840 c3        1 330     -0.021000
     23 O1          2.0390   -0.1910    4.9200 o         1 330     -0.313000
     24 N1          3.5100   -0.3360    3.1050 n         1 330     -0.403000
     25 O2          4.3950   -0.4820    0.9490 o         1 330     -0.284000
     26 O3         -2.3560    0.1180    7.0700 oh        1 330     -0.222000
     27 O5          2.7340   -2.2500   -2.3250 os        1 330     -0.255000
     28 C24         2.9660   -2.9750   -1.1270 c3        1 330     -0.079000
     29 N2         -2.1790    0.1500    1.5040 na        1 330     -0.160000
     30 O4         -4.9330   -2.3200   -1.7240 oh        1 330     -0.315000
     31 H1         -0.6020    0.0260   -0.8830 ha        1 330      0.149000
     32 H9          0.7670   -1.6830   -1.9070 h1        1 330      0.097000
     33 H10         1.1030   -1.1790   -4.3020 ha        1 330      0.146000
     34 H11         2.0840    1.0960   -4.8580 ha        1 330      0.145000
     35 H12         4.0090    1.7620   -3.2150 ha        1 330      0.170000
     36 H17        -0.1480   -0.0370    5.4920 ha        1 330      0.173000
     37 H18        -4.2220    1.1960    3.3330 hc        1 330      0.165000
     38 H20        -4.3720   -0.6110    3.3120 hc        1 330      0.165000
     39 H211       -4.1020    0.6640    0.9110 h1        1 330      0.106500
     40 H212       -2.8090    0.7680   -0.3800 h1        1 330      0.106500
     41 H221       -3.9640   -1.8680    0.8140 hc        1 330      0.102000
     42 H222       -2.7030   -1.7510   -0.4750 hc        1 330      0.102000
     43 H231       -5.6140   -0.6780   -0.6270 h1        1 330      0.088500
     44 H232       -4.3410   -0.4070   -1.9150 h1        1 330      0.088500
     45 HN1         4.3570   -0.4070    3.6070 hn        1 330      0.263000
     46 HO3        -1.4440    0.0550    7.3890 ho        1 330      0.205000
     47 H241        3.3270   -2.2890   -0.3190 h1        1 330      0.081333
     48 H242        3.7610   -3.7100   -1.4070 h1        1 330      0.081333
     49 H243        2.0360   -3.5040   -0.8020 h1        1 330      0.081333
     50 HO4        -5.2430   -2.9370   -1.0490 ho        1 330      0.201000
     51 C21        -3.1900    0.1530    0.4860 c3        1 330     -0.016000
@<TRIPOS>BOND
     1    1    2 1   
     2    1   14 1   
     3    1   31 1   
     4    2    3 1   
     5    2    7 1   
     6    3    4 1   
     7    3    6 1   
     8    4    5 1   
     9    4   13 1   
    10    5   23 1   
    11    5   24 1   
    12    6   24 1   
    13    6   25 1   
    14    7    8 1   
    15    7   12 1   
    16    8    9 1   
    17    8   27 1   
    18    8   32 1   
    19    9   10 1   
    20    9   33 1   
    21   10   11 1   
    22   10   34 1   
    23   11   12 1   
    24   11   35 1   
    25   13   14 1   
    26   13   15 1   
    27   14   29 1   
    28   15   16 1   
    29   15   17 1   
    30   16   18 1   
    31   16   29 1   
    32   17   19 1   
    33   17   36 1   
    34   18   20 1   
    35   18   37 1   
    36   18   38 1   
    37   19   20 1   
    38   19   26 1   
    39   21   22 1   
    40   21   41 1   
    41   21   42 1   
    42   21   51 1   
    43   22   30 1   
    44   22   43 1   
    45   22   44 1   
    46   24   45 1   
    47   26   46 1   
    48   27   28 1   
    49   28   47 1   
    50   28   48 1   
    51   28   49 1   
    52   29   51 1   
    53   30   50 1   
    54   39   51 1   
    55   40   51 1   
@<TRIPOS>SUBSTRUCTURE
     1 330         1 TEMP              0 ****  ****    0 ROOT
