@<TRIPOS>MOLECULE
330
   51    42     1     0     0
SMALL
bcc


@<TRIPOS>ATOM
      1 C1          0.2510    0.1220   -0.7920 c1        1 330     -0.113000
      2 C2          1.6360    0.0470   -0.8120 c1        1 330      0.012000
      3 C3          2.3420   -0.2440    0.3730 c1        1 330     -0.109500
      4 C4          1.6570   -0.4540    1.5490 c1        1 330     -0.109500
      5 C5          2.6830   -0.6650    2.6610 c2        1 330      0.364000
      6 C6          3.8330   -0.3060    0.6800 c2        1 330      0.364000
      7 C7          2.2940   -0.0390   -2.0660 c1        1 330     -0.087000
      8 C8          2.4060    1.0920   -2.8720 c1        1 330      0.096000
      9 C9          2.9540    0.9880   -4.1360 c2        1 330     -0.207000
     10 C10         3.3950   -0.2440   -4.6050 c1        1 330     -0.083000
     11 C11         3.2840   -1.3690   -3.8060 c1        1 330     -0.108000
     12 C12         2.7320   -1.2660   -2.5330 c1        1 330     -0.108000
     13 C13         0.2380   -0.3770    1.5700 c1        1 330      0.023000
     14 C14        -0.4520   -0.0930    0.4160 c1        1 330      0.023000
     15 C15        -0.6940   -0.4790    2.6180 c1        1 330      0.012000
     16 C16        -1.9470   -0.2560    2.0950 c1        1 330      0.012000
     17 C17        -0.5250   -0.6150    4.0100 c1        1 330     -0.113000
     18 C18        -3.0580   -0.1650    2.9500 c1        1 330     -0.113000
     19 C19        -1.6230   -0.5250    4.8540 c1        1 330      0.051000
     20 C20        -2.8910   -0.3000    4.3260 c1        1 330     -0.179000
     21 C21        -2.9400    0.3300   -0.1000 c3        1 330     -0.024000
     22 C22        -3.8050   -0.9110   -0.3300 c3        1 330     -0.199000
     23 C23        -5.0440   -0.5270   -1.1430 c3        1 330     -0.015000
     24 O1          2.4350   -0.8040    3.8520 o         1 330     -0.304500
     25 N1          3.9880   -0.5700    2.0820 n         1 330     -0.404000
     26 O2          4.7310   -0.1940   -0.1250 o         1 330     -0.304500
     27 O3         -1.0010   -0.5730    6.1180 oh        1 330     -0.246000
     28 O5          1.8610    2.3300   -2.4370 o         1 330     -0.216000
     29 C24         2.5510    3.4720   -2.9380 c3        1 330     -0.076000
     30 N2         -1.8090   -0.0170    0.7330 n1        1 330     -0.172000
     31 O4         -5.9460   -1.6220   -1.1750 oh        1 330     -0.323000
     32 H1         -0.2350    0.3410   -1.6060 ha        1 330      0.162000
     33 H9          3.0330    1.7860   -4.7040 ha        1 330      0.138000
     34 H10         3.7810   -0.3160   -5.4960 ha        1 330      0.134000
     35 H11         3.5950   -2.2380   -4.1370 ha        1 330      0.143500
     36 H12         2.6540   -2.0590   -1.9690 ha        1 330      0.143500
     37 H17         0.3690   -0.7740    4.3830 ha        1 330      0.162000
     38 H18        -3.9510   -0.0070    2.5770 ha        1 330      0.162000
     39 H20        -3.6690   -0.2370    4.9250 ha        1 330      0.136000
     40 H211       -2.6170    0.6700   -0.9650 h1        1 330      0.101000
     41 H212       -3.4730    1.0220    0.3440 h1        1 330      0.101000
     42 H221       -3.2890   -1.5810   -0.8190 hc        1 330      0.109500
     43 H222       -4.0810   -1.2790    0.5320 hc        1 330      0.109500
     44 H231       -5.4800    0.2400   -0.7280 h1        1 330      0.060500
     45 H232       -4.7770   -0.2960   -2.0580 h1        1 330      0.060500
     46 HN1         4.7800   -0.6960    2.5200 hn        1 330      0.260000
     47 HO3        -1.5400   -0.2110    6.7290 ho        1 330      0.215000
     48 H241        2.1380    3.7620   -3.7800 h1        1 330      0.085333
     49 H242        3.4890    3.2410   -3.0970 h1        1 330      0.085333
     50 H243        2.5000    4.1990   -2.2800 h1        1 330      0.085333
     51 HO4        -6.7630   -1.3300   -1.3890 ho        1 330      0.202000
@<TRIPOS>BOND
     1    1    2 1   
     2    1   32 1   
     3    3    4 1   
     4    3    6 1   
     5    4    5 1   
     6    5   24 1   
     7    5   25 1   
     8    6   25 1   
     9    6   26 1   
    10    7    8 1   
    11    8    9 1   
    12    9   10 1   
    13    9   33 1   
    14   10   34 1   
    15   11   12 1   
    16   11   35 1   
    17   12   36 1   
    18   13   14 1   
    19   15   17 1   
    20   16   18 1   
    21   17   37 1   
    22   18   38 1   
    23   19   20 1   
    24   19   27 1   
    25   20   39 1   
    26   21   22 1   
    27   21   30 1   
    28   21   40 1   
    29   21   41 1   
    30   22   23 1   
    31   22   42 1   
    32   22   43 1   
    33   23   31 1   
    34   23   44 1   
    35   23   45 1   
    36   25   46 1   
    37   27   47 1   
    38   28   29 1   
    39   29   48 1   
    40   29   49 1   
    41   29   50 1   
    42   31   51 1   
@<TRIPOS>SUBSTRUCTURE
     1 330         1 TEMP              0 ****  ****    0 ROOT
