@<TRIPOS>MOLECULE
331
   70    66     1     0     0
SMALL
bcc


@<TRIPOS>ATOM
      1 C1          3.2550   -1.9840    3.3490 c1        1 331      0.055000
      2 N2          2.5760   -2.0930    2.0680 n2        1 331     -0.320000
      3 C3          4.6110   -1.7020    3.3910 c2        1 331      0.043000
      4 C4          2.5640   -2.2480    4.5280 c1        1 331     -0.103000
      5 C5          2.0950   -0.8730    1.3800 c2        1 331      0.401000
      6 C6          5.2810   -1.6820    4.6110 c1        1 331     -0.180000
      7 F7          5.2980   -1.5440    2.2470 f         1 331     -0.114000
      8 C8          3.2350   -2.2280    5.7490 c1        1 331     -0.151000
      9 N9          1.3730   -0.9830    0.1090 n         1 331     -0.329000
     10 O10         2.2700    0.2300    1.8920 o         1 331     -0.389000
     11 C11         4.5900   -1.9460    5.7890 c1        1 331      0.076000
     12 C12         0.0640   -0.3500   -0.0460 c3        1 331     -0.019000
     13 C13         1.9960   -1.6470   -1.0250 c3        1 331     -0.030000
     14 F14         5.1600   -1.8890    6.9920 f         1 331     -0.108000
     15 C15        -1.0060   -1.2220    0.6140 c3        1 331     -0.125000
     16 C16         2.9330   -0.6370   -1.7750 c3        1 331     -0.181000
     17 C17        -2.3430   -0.4280    0.6990 c2        1 331     -0.161000
     18 C18         3.3710   -1.2450   -3.1160 c3        1 331     -0.159000
     19 C19        -3.3800   -0.5870   -0.2210 c2        1 331     -0.108000
     20 C20        -2.5520    0.3080    1.8640 c1        1 331     -0.085000
     21 C21         4.2170   -0.1940   -3.9160 c3        1 331     -0.158000
     22 C22        -4.6300   -0.0090    0.0260 c1        1 331     -0.194000
     23 C23        -3.8030    0.8870    2.1120 c1        1 331     -0.189000
     24 C24         4.6510   -0.8000   -5.2580 c3        1 331     -0.158000
     25 C25        -4.8390    0.7280    1.1920 c1        1 331      0.146000
     26 C26         5.6090    0.1720   -5.9790 c3        1 331     -0.159000
     27 O27        -6.1950    1.2390    1.3270 os        1 331     -0.208000
     28 C28         6.0350   -0.4350   -7.3230 c3        1 331     -0.210000
     29 C29        -6.2900    2.6560    1.2160 c3        1 331      0.001000
     30 C30        -5.6870    3.3000    2.4470 c2        1 331      0.322000
     31 C31        -7.7820    3.0700    1.0930 c3        1 331     -0.128000
     32 C32        -5.5580    3.1050    0.0150 c3        1 331     -0.217000
     33 O33        -5.1260    4.4330    2.3600 o         1 331     -0.553500
     34 O34        -5.7340    2.7030    3.5570 o         1 331     -0.553500
     35 C35        -8.5460    2.5700    2.2890 c3        1 331     -0.213000
     36 H36         2.4350   -2.9150    1.6940 hn        1 331      0.233000
     37 H37         1.6180   -2.4560    4.4990 ha        1 331      0.189000
     38 H38         6.2340   -1.4840    4.6400 ha        1 331      0.158000
     39 H39         2.7490   -2.4140    6.5780 ha        1 331      0.154000
     40 H40        -0.1390   -0.2490   -0.9960 h1        1 331      0.110000
     41 H41         0.0760    0.5280    0.3790 h1        1 331      0.110000
     42 H42         1.2970   -1.9670   -1.6430 h1        1 331      0.092500
     43 H43         2.5210   -2.4020   -0.7110 h1        1 331      0.092500
     44 H44        -0.7140   -1.4690    1.5170 hc        1 331      0.082500
     45 H45        -1.1410   -2.0330    0.0810 hc        1 331      0.082500
     46 H46         2.4520    0.1940   -1.9370 hc        1 331      0.087500
     47 H47         3.7180   -0.4570   -1.2290 hc        1 331      0.087500
     48 H48         2.5770   -1.4910   -3.6380 hc        1 331      0.081000
     49 H49         3.9110   -2.0380   -2.9520 hc        1 331      0.081000
     50 H50        -3.2180   -1.0560   -1.0650 ha        1 331      0.103000
     51 H51        -2.0610    0.6280    2.6490 ha        1 331      0.123000
     52 H52         3.6730    0.6090   -4.0790 hc        1 331      0.081000
     53 H53         5.0100    0.0490   -3.3970 hc        1 331      0.081000
     54 H54        -5.3620   -0.1250   -0.6210 ha        1 331      0.131000
     55 H55        -3.8930    1.0630    3.0680 ha        1 331      0.191000
     56 H56         3.8590   -0.9540   -5.8190 hc        1 331      0.079500
     57 H57         5.1030   -1.6430   -5.1010 hc        1 331      0.079500
     58 H58         5.1480    1.0320   -6.1370 hc        1 331      0.078000
     59 H59         6.3990    0.3230   -5.4240 hc        1 331      0.078000
     60 H60         6.6010   -1.2130   -7.1630 hc        1 331      0.071000
     61 H61         5.2320   -0.7100   -7.8300 hc        1 331      0.071000
     62 H62         6.5360    0.2340   -7.8400 hc        1 331      0.071000
     63 H63        -8.1620    2.6810    0.2760 hc        1 331      0.066000
     64 H64        -7.8470    4.0530    1.0500 hc        1 331      0.066000
     65 H65        -5.7920    4.0340   -0.1810 hc        1 331      0.072667
     66 H66        -5.8010    2.5420   -0.7410 hc        1 331      0.072667
     67 H67        -4.5850    3.0370    0.1770 hc        1 331      0.072667
     68 H69        -9.5130    2.7030    2.1390 hc        1 331      0.076333
     69 H70        -8.2680    3.0660    3.0850 hc        1 331      0.076333
     70 H71        -8.3660    1.6250    2.4170 hc        1 331      0.076333
@<TRIPOS>BOND
     1    1    3 1   
     2    1    4 1   
     3    2    5 1   
     4    2   36 1   
     5    3    6 1   
     6    3    7 1   
     7    4   37 1   
     8    5    9 1   
     9    5   10 1   
    10    6   38 1   
    11    8   11 1   
    12    8   39 1   
    13    9   12 1   
    14    9   13 1   
    15   11   14 1   
    16   12   15 1   
    17   12   40 1   
    18   12   41 1   
    19   13   16 1   
    20   13   42 1   
    21   13   43 1   
    22   15   17 1   
    23   15   44 1   
    24   15   45 1   
    25   16   18 1   
    26   16   46 1   
    27   16   47 1   
    28   17   19 1   
    29   17   20 1   
    30   18   21 1   
    31   18   48 1   
    32   18   49 1   
    33   19   22 1   
    34   19   50 1   
    35   20   51 1   
    36   21   24 1   
    37   21   52 1   
    38   21   53 1   
    39   22   54 1   
    40   23   25 1   
    41   23   55 1   
    42   24   26 1   
    43   24   56 1   
    44   24   57 1   
    45   25   27 1   
    46   26   28 1   
    47   26   58 1   
    48   26   59 1   
    49   27   29 1   
    50   28   60 1   
    51   28   61 1   
    52   28   62 1   
    53   29   30 1   
    54   29   31 1   
    55   29   32 1   
    56   30   33 1   
    57   30   34 1   
    58   31   35 1   
    59   31   63 1   
    60   31   64 1   
    61   32   65 1   
    62   32   66 1   
    63   32   67 1   
    64   35   68 1   
    65   35   69 1   
    66   35   70 1   
@<TRIPOS>SUBSTRUCTURE
     1 331         1 TEMP              0 ****  ****    0 ROOT
