@<TRIPOS>MOLECULE
331
   70    71     1     0     0
SMALL
bcc


@<TRIPOS>ATOM
      1 C1         -2.0620   -0.1660   -4.5640 ca        1 331      0.047600
      2 N2         -1.0790    0.1690   -3.6240 n         1 331     -0.466100
      3 C3         -1.6920   -0.3510   -5.9340 ca        1 331      0.077900
      4 C4         -3.4330   -0.2670   -4.2400 ca        1 331     -0.103000
      5 C5         -1.1540   -0.1960   -2.2540 c         1 331      0.774100
      6 C6         -2.6540   -0.6130   -6.9170 ca        1 331     -0.180000
      7 F7         -0.3880   -0.2640   -6.3080 f         1 331     -0.148900
      8 C8         -4.3860   -0.5370   -5.2110 ca        1 331     -0.151000
      9 N9         -0.0350    0.0090   -1.4360 n         1 331     -0.470800
     10 O10        -2.2030   -0.6970   -1.7860 o         1 331     -0.628100
     11 C11        -4.0040   -0.7090   -6.5530 ca        1 331      0.110900
     12 C12        -0.1540   -0.2700   -0.0160 c3        1 331      0.097000
     13 C13         1.1260    0.7470   -1.8670 c3        1 331      0.086000
     14 F14        -4.9390   -0.9680   -7.5000 f         1 331     -0.142900
     15 C15        -0.5040    0.9410    0.8590 c3        1 331     -0.039100
     16 C16         2.1660   -0.0910   -2.6180 c3        1 331     -0.102400
     17 C17        -0.1950    0.6550    2.2830 ca        1 331     -0.168300
     18 C18         3.3390    0.7800   -3.0120 c3        1 331     -0.080400
     19 C19        -1.2190    0.4730    3.2190 ca        1 331     -0.096500
     20 C20         1.1360    0.5950    2.7160 ca        1 331     -0.096500
     21 C21         4.3900   -0.0220   -3.7510 c3        1 331     -0.079400
     22 C22        -0.9370    0.2250    4.5580 ca        1 331     -0.191500
     23 C23         1.4420    0.3450    4.0450 ca        1 331     -0.191500
     24 C24         5.5660    0.8450   -4.1430 c3        1 331     -0.079400
     25 C25         0.4010    0.1530    4.9840 ca        1 331      0.191100
     26 C26         6.6180    0.0450   -4.8820 c3        1 331     -0.080400
     27 O27         0.8420   -0.0840    6.2550 os        1 331     -0.324900
     28 C28         7.7920    0.9040   -5.2740 c3        1 331     -0.092100
     29 C29        -0.0980   -0.4850    7.2820 c3        1 331      0.022800
     30 C30        -1.2670    0.5350    7.4920 c         1 331      0.902600
     31 C31         0.7550   -0.5490    8.5580 c3        1 331     -0.049400
     32 C32        -0.6270   -1.8750    6.9680 c3        1 331     -0.099100
     33 O33        -2.4240    0.0490    7.6320 o         1 331     -0.818800
     34 O34        -0.9980    1.7640    7.5260 o         1 331     -0.818800
     35 C35         1.5530    0.7030    8.8040 c3        1 331     -0.095100
     36 H36        -0.1730    0.3290   -4.0130 hn        1 331      0.318500
     37 H37        -3.7570   -0.1410   -3.1910 ha        1 331      0.189000
     38 H38        -2.3460   -0.7460   -7.9640 ha        1 331      0.158000
     39 H39        -5.4480   -0.6160   -4.9340 ha        1 331      0.154000
     40 H40        -0.9410   -1.0630    0.1310 h1        1 331      0.070700
     41 H41         0.8390   -0.6900    0.3180 h1        1 331      0.070700
     42 H42         1.6280    1.1770   -0.9500 h1        1 331      0.053200
     43 H43         0.8280    1.6260   -2.5080 h1        1 331      0.053200
     44 H44         0.0800    1.8430    0.5300 hc        1 331      0.043200
     45 H45        -1.5920    1.1840    0.7320 hc        1 331      0.043200
     46 H46         1.7200   -0.5570   -3.5340 hc        1 331      0.048200
     47 H47         2.5190   -0.9290   -1.9620 hc        1 331      0.048200
     48 H48         3.7940    1.2390   -2.0950 hc        1 331      0.041700
     49 H49         2.9850    1.6230   -3.6630 hc        1 331      0.041700
     50 H50        -2.2700    0.5340    2.8960 ha        1 331      0.113000
     51 H51         1.9490    0.7520    1.9920 ha        1 331      0.113000
     52 H52         3.9370   -0.4800   -4.6690 hc        1 331      0.041700
     53 H53         4.7440   -0.8650   -3.1010 hc        1 331      0.041700
     54 H54        -1.7610    0.1200    5.2850 ha        1 331      0.161000
     55 H55         2.4830    0.3040    4.3890 ha        1 331      0.161000
     56 H56         6.0200    1.3020   -3.2240 hc        1 331      0.040200
     57 H57         5.2130    1.6900   -4.7920 hc        1 331      0.040200
     58 H58         6.1620   -0.4130   -5.8000 hc        1 331      0.038700
     59 H59         6.9690   -0.8000   -4.2320 hc        1 331      0.038700
     60 H60         8.5550    0.2950   -5.8170 hc        1 331      0.031700
     61 H61         7.4650    1.7370   -5.9420 hc        1 331      0.031700
     62 H62         8.2740    1.3490   -4.3700 hc        1 331      0.031700
     63 H63         1.4470   -1.4300    8.4950 hc        1 331      0.026700
     64 H64         0.0440   -0.7260    9.4080 hc        1 331      0.026700
     65 H65         0.2090   -2.6100    6.8830 hc        1 331      0.033367
     66 H66        -1.3230   -2.1850    7.7830 hc        1 331      0.033367
     67 H67        -1.1970   -1.8660    6.0090 hc        1 331      0.033367
     68 H69         2.0240    0.6710    9.8160 hc        1 331      0.037033
     69 H70         2.3580    0.8080    8.0370 hc        1 331      0.037033
     70 H71         0.8850    1.6000    8.7310 hc        1 331      0.037033
@<TRIPOS>BOND
     1    1    2 1   
     2    1    3 ar  
     3    1    4 ar  
     4    2    5 1   
     5    2   36 1   
     6    3    6 ar  
     7    3    7 1   
     8    4    8 ar  
     9    4   37 1   
    10    5    9 1   
    11    5   10 2   
    12    6   11 ar  
    13    6   38 1   
    14    8   11 ar  
    15    8   39 1   
    16    9   12 1   
    17    9   13 1   
    18   11   14 1   
    19   12   15 1   
    20   12   40 1   
    21   12   41 1   
    22   13   16 1   
    23   13   42 1   
    24   13   43 1   
    25   15   17 1   
    26   15   44 1   
    27   15   45 1   
    28   16   18 1   
    29   16   46 1   
    30   16   47 1   
    31   17   19 ar  
    32   17   20 ar  
    33   18   21 1   
    34   18   48 1   
    35   18   49 1   
    36   19   22 ar  
    37   19   50 1   
    38   20   23 ar  
    39   20   51 1   
    40   21   24 1   
    41   21   52 1   
    42   21   53 1   
    43   22   25 ar  
    44   22   54 1   
    45   23   25 ar  
    46   23   55 1   
    47   24   26 1   
    48   24   56 1   
    49   24   57 1   
    50   25   27 1   
    51   26   28 1   
    52   26   58 1   
    53   26   59 1   
    54   27   29 1   
    55   28   60 1   
    56   28   61 1   
    57   28   62 1   
    58   29   30 1   
    59   29   31 1   
    60   29   32 1   
    61   30   33 1   
    62   30   34 1   
    63   31   35 1   
    64   31   63 1   
    65   31   64 1   
    66   32   65 1   
    67   32   66 1   
    68   32   67 1   
    69   35   68 1   
    70   35   69 1   
    71   35   70 1   
@<TRIPOS>SUBSTRUCTURE
     1 331         1 TEMP              0 ****  ****    0 ROOT
