@<TRIPOS>MOLECULE
331
   70    71     1     0     0
SMALL
bcc


@<TRIPOS>ATOM
      1 C1          0.4750    0.1530    0.0230 ca        1 331      0.047600
      2 N2         -0.4530    0.1030   -1.0250 n         1 331     -0.466100
      3 C3          1.8740    0.1090   -0.2730 ca        1 331      0.077900
      4 C4          0.0970    0.1750    1.3830 ca        1 331     -0.103000
      5 C5         -1.7340    0.7130   -0.9630 c         1 331      0.774100
      6 C6          2.8320    0.0810    0.7480 ca        1 331     -0.180000
      7 F7          2.3000    0.0830   -1.5640 f         1 331     -0.148900
      8 C8          1.0450    0.1590    2.3960 ca        1 331     -0.151000
      9 N9         -2.5100    0.7810   -2.1270 n         1 331     -0.470800
     10 O10        -2.1610    1.1860    0.1170 o         1 331     -0.628100
     11 C11         2.4150    0.1100    2.0860 ca        1 331      0.110900
     12 C12        -3.8580    1.3120   -2.0320 c3        1 331      0.097000
     13 C13        -2.1570    0.0940   -3.3450 c3        1 331      0.086000
     14 F14         3.3380    0.0890    3.0780 f         1 331     -0.142900
     15 C15        -4.9610    0.2620   -1.8490 c3        1 331     -0.039100
     16 C16        -1.2060    0.8730   -4.2580 c3        1 331     -0.102400
     17 C17        -6.2870    0.8430   -2.1790 ca        1 331     -0.168300
     18 C18        -0.9140    0.0650   -5.5040 c3        1 331     -0.080400
     19 C19        -7.2310    1.0980   -1.1780 ca        1 331     -0.096500
     20 C20        -6.6230    1.1170   -3.5110 ca        1 331     -0.096500
     21 C21         0.0190    0.8130   -6.4320 c3        1 331     -0.079400
     22 C22        -8.4810    1.6240   -1.4830 ca        1 331     -0.191500
     23 C23        -7.8630    1.6450   -3.8390 ca        1 331     -0.191500
     24 C24         0.3100    0.0100   -7.6820 c3        1 331     -0.079400
     25 C25        -8.8090    1.9080   -2.8200 ca        1 331      0.191100
     26 C26         1.2440    0.7560   -8.6110 c3        1 331     -0.080400
     27 O27        -9.9850    2.4260   -3.2810 os        1 331     -0.324900
     28 C28         1.5360   -0.0390   -9.8570 c3        1 331     -0.092100
     29 C29       -10.9730    2.9200   -2.3430 c3        1 331      0.022800
     30 C30       -11.4360    1.8480   -1.3000 c         1 331      0.902600
     31 C31       -12.1630    3.3120   -3.2310 c3        1 331     -0.049400
     32 C32       -10.4370    4.1660   -1.6540 c3        1 331     -0.099100
     33 O33       -11.5500    2.2340   -0.1030 o         1 331     -0.818800
     34 O34       -11.6820    0.6810   -1.7020 o         1 331     -0.818800
     35 C35       -12.5910    2.2150   -4.1700 c3        1 331     -0.095100
     36 H36        -0.0500   -0.0360   -1.9280 hn        1 331      0.319500
     37 H37        -0.9740    0.2200    1.6520 ha        1 331      0.189000
     38 H38         3.9010    0.0430    0.4960 ha        1 331      0.158000
     39 H39         0.7270    0.1830    3.4490 ha        1 331      0.154000
     40 H40        -3.9000    2.0360   -1.1690 h1        1 331      0.070700
     41 H41        -4.0500    1.8850   -2.9850 h1        1 331      0.070700
     42 H42        -3.1080   -0.1020   -3.9250 h1        1 331      0.053200
     43 H43        -1.7080   -0.9170   -3.1210 h1        1 331      0.053200
     44 H44        -4.7720   -0.6240   -2.5140 hc        1 331      0.043700
     45 H45        -4.9450   -0.1080   -0.7900 hc        1 331      0.043700
     46 H46        -1.6740    1.8520   -4.5420 hc        1 331      0.048200
     47 H47        -0.2460    1.1090   -3.7300 hc        1 331      0.048200
     48 H48        -1.8730   -0.1630   -6.0400 hc        1 331      0.041700
     49 H49        -0.4520   -0.9170   -5.2200 hc        1 331      0.041700
     50 H50        -6.9860    0.8720   -0.1290 ha        1 331      0.113000
     51 H51        -5.8960    0.9060   -4.3090 ha        1 331      0.113000
     52 H52         0.9800    1.0400   -5.8990 hc        1 331      0.041700
     53 H53        -0.4420    1.7960   -6.7160 hc        1 331      0.041700
     54 H54        -9.2230    1.7840   -0.6800 ha        1 331      0.161000
     55 H55        -8.1330    1.8540   -4.8820 ha        1 331      0.161000
     56 H56         0.7700   -0.9740   -7.3990 hc        1 331      0.040200
     57 H57        -0.6500   -0.2160   -8.2160 hc        1 331      0.040200
     58 H58         2.2030    0.9830   -8.0750 hc        1 331      0.038700
     59 H59         0.7820    1.7400   -8.8920 hc        1 331      0.038700
     60 H60         0.5940   -0.2540  -10.4180 hc        1 331      0.031700
     61 H61         2.0180   -1.0130   -9.5990 hc        1 331      0.031700
     62 H62         2.2250    0.5290  -10.5280 hc        1 331      0.031700
     63 H63       -13.0050    3.5760   -2.5390 hc        1 331      0.026700
     64 H64       -11.8980    4.2280   -3.8210 hc        1 331      0.026700
     65 H65        -9.5310    3.9170   -1.0520 hc        1 331      0.033367
     66 H66       -11.2200    4.5550   -0.9610 hc        1 331      0.033367
     67 H67       -10.1690    4.9500   -2.4010 hc        1 331      0.033367
     68 H69       -12.7240    1.2590   -3.6010 hc        1 331      0.037033
     69 H70       -13.5500    2.4870   -4.6730 hc        1 331      0.037033
     70 H71       -11.8120    2.0460   -4.9520 hc        1 331      0.037033
@<TRIPOS>BOND
     1    1    2 1   
     2    1    3 ar  
     3    1    4 ar  
     4    2    5 1   
     5    2   36 1   
     6    3    6 ar  
     7    3    7 1   
     8    4    8 ar  
     9    4   37 1   
    10    5    9 1   
    11    5   10 2   
    12    6   11 ar  
    13    6   38 1   
    14    8   11 ar  
    15    8   39 1   
    16    9   12 1   
    17    9   13 1   
    18   11   14 1   
    19   12   15 1   
    20   12   40 1   
    21   12   41 1   
    22   13   16 1   
    23   13   42 1   
    24   13   43 1   
    25   15   17 1   
    26   15   44 1   
    27   15   45 1   
    28   16   18 1   
    29   16   46 1   
    30   16   47 1   
    31   17   19 ar  
    32   17   20 ar  
    33   18   21 1   
    34   18   48 1   
    35   18   49 1   
    36   19   22 ar  
    37   19   50 1   
    38   20   23 ar  
    39   20   51 1   
    40   21   24 1   
    41   21   52 1   
    42   21   53 1   
    43   22   25 ar  
    44   22   54 1   
    45   23   25 ar  
    46   23   55 1   
    47   24   26 1   
    48   24   56 1   
    49   24   57 1   
    50   25   27 1   
    51   26   28 1   
    52   26   58 1   
    53   26   59 1   
    54   27   29 1   
    55   28   60 1   
    56   28   61 1   
    57   28   62 1   
    58   29   30 1   
    59   29   31 1   
    60   29   32 1   
    61   30   33 1   
    62   30   34 1   
    63   31   35 1   
    64   31   63 1   
    65   31   64 1   
    66   32   65 1   
    67   32   66 1   
    68   32   67 1   
    69   35   68 1   
    70   35   69 1   
    71   35   70 1   
@<TRIPOS>SUBSTRUCTURE
     1 331         1 TEMP              0 ****  ****    0 ROOT
