@<TRIPOS>MOLECULE
331
   71    72     1     0     0
SMALL
bcc


@<TRIPOS>ATOM
      1 C1         -1.3560   -1.5080   -2.5700 ca        1 331      0.002600
      2 N2         -2.5440   -0.7480   -2.6240 ns        1 331     -0.423100
      3 C3         -0.7090   -1.8470   -3.8000 ca        1 331      0.136900
      4 C4         -0.7820   -1.9650   -1.3690 ca        1 331     -0.101000
      5 C5         -3.0390   -0.0310   -1.5650 c         1 331      0.654100
      6 C6          0.4610   -2.6180   -3.8010 ca        1 331     -0.188000
      7 F7         -1.2190   -1.4360   -4.9840 f         1 331     -0.120900
      8 C8          0.3820   -2.7220   -1.3690 ca        1 331     -0.161000
      9 N9         -4.3280    0.7460   -1.8080 nx        1 331     -0.569200
     10 O10        -2.5260    0.0690   -0.4350 o         1 331     -0.574100
     11 C11         1.0080   -3.0520   -2.5830 ca        1 331      0.145900
     12 C12        -4.9760    1.1320   -0.5160 c3        1 331      0.121800
     13 C13        -4.0400    1.9460   -2.6580 c3        1 331      0.110800
     14 F14         2.1410   -3.7910   -2.5830 f         1 331     -0.128900
     15 C15        -5.7950    0.0170    0.1480 c3        1 331     -0.039100
     16 C16        -3.0340    2.9170   -2.0630 c3        1 331     -0.102400
     17 C17        -6.7230   -0.5660   -0.8540 ca        1 331     -0.162300
     18 C18        -2.7430    4.0140   -3.0660 c3        1 331     -0.077400
     19 C19        -7.7100    0.2480   -1.4290 ca        1 331     -0.121500
     20 C20        -6.4710   -1.8360   -1.3870 ca        1 331     -0.121500
     21 C21        -1.7650    5.0190   -2.4970 c3        1 331     -0.078400
     22 C22        -8.2370   -0.0790   -2.6730 ca        1 331     -0.121000
     23 C23        -6.9950   -2.1800   -2.6300 ca        1 331     -0.121000
     24 C24        -1.4680    6.1160   -3.4980 c3        1 331     -0.080400
     25 C25        -7.7630   -1.2310   -3.3240 ca        1 331      0.130100
     26 C26        -0.4910    7.1250   -2.9330 c3        1 331     -0.079400
     27 O27        -8.0210   -1.4000   -4.6730 os        1 331     -0.348900
     28 C28        -0.1920    8.2190   -3.9250 c3        1 331     -0.093100
     29 C29        -6.9320   -0.9030   -5.5200 c3        1 331      0.076800
     30 C30        -5.8510   -0.1610   -4.7040 c         1 331      0.903600
     31 C31        -7.5770   -0.0080   -6.5790 c3        1 331     -0.063400
     32 C32        -6.3160   -2.1300   -6.1810 c3        1 331     -0.096100
     33 O33        -4.9950   -0.8510   -4.0430 o         1 331     -0.864300
     34 O34        -5.7960    1.0970   -4.6360 o         1 331     -0.864300
     35 C35        -8.5070    1.0330   -6.0150 c3        1 331     -0.092100
     36 H36        -3.0860   -0.8210   -3.4820 hn        1 331      0.408500
     37 H37        -1.2520   -1.7210   -0.4000 ha        1 331      0.174000
     38 H38         0.9450   -2.8760   -4.7550 ha        1 331      0.173000
     39 H39         0.8180   -3.0670   -0.4200 ha        1 331      0.161000
     40 H40        -5.6700    1.9910   -0.7530 hx        1 331      0.095700
     41 H41        -4.1780    1.4890    0.1950 hx        1 331      0.095700
     42 H42        -3.7000    1.5590   -3.6670 hx        1 331      0.128700
     43 H43        -5.0290    2.4590   -2.8520 hx        1 331      0.128700
     44 H44        -5.1090   -0.7640    0.5690 hc        1 331      0.072200
     45 H45        -6.3520    0.4830    1.0040 hc        1 331      0.072200
     46 H46        -3.4400    3.3660   -1.1180 hc        1 331      0.053700
     47 H47        -2.0810    2.3850   -1.7960 hc        1 331      0.053700
     48 H48        -3.6990    4.5320   -3.3470 hc        1 331      0.054700
     49 H49        -2.3220    3.5660   -4.0050 hc        1 331      0.054700
     50 H50        -8.0130    1.1800   -0.9310 ha        1 331      0.130000
     51 H51        -5.8010   -2.5320   -0.8620 ha        1 331      0.130000
     52 H52        -0.8120    4.5000   -2.2140 hc        1 331      0.041200
     53 H53        -2.1870    5.4690   -1.5600 hc        1 331      0.041200
     54 H54        -8.9410    0.5890   -3.1920 ha        1 331      0.156500
     55 H55        -6.7260   -3.1270   -3.1190 ha        1 331      0.156500
     56 H56        -1.0440    5.6670   -4.4340 hc        1 331      0.043700
     57 H57        -2.4210    6.6350   -3.7820 hc        1 331      0.043700
     58 H58        -0.9150    7.5720   -1.9950 hc        1 331      0.038200
     59 H59         0.4610    6.6040   -2.6480 hc        1 331      0.038200
     60 H60         0.2550    7.7940   -4.8570 hc        1 331      0.034367
     61 H61         0.5300    8.9510   -3.4900 hc        1 331      0.034367
     62 H62        -1.1250    8.7650   -4.2030 hc        1 331      0.034367
     63 H63        -6.7430    0.4950   -7.1370 hc        1 331      0.043700
     64 H64        -8.1400   -0.6580   -7.2990 hc        1 331      0.043700
     65 H65        -5.5870   -1.8040   -6.9590 hc        1 331      0.044367
     66 H66        -5.7820   -2.7400   -5.4130 hc        1 331      0.044367
     67 H67        -7.1120   -2.7520   -6.6540 hc        1 331      0.044367
     68 H69        -7.9570    1.6900   -5.2970 hc        1 331      0.037367
     69 H70        -8.9190    1.6640   -6.8390 hc        1 331      0.037367
     70 H71        -9.3570    0.5480   -5.4780 hc        1 331      0.037367
     71 H91        -4.9870    0.1350   -2.3810 hn        1 331      0.530800
@<TRIPOS>BOND
     1    1    2 1   
     2    1    3 ar  
     3    1    4 ar  
     4    2    5 1   
     5    2   36 1   
     6    3    6 ar  
     7    3    7 1   
     8    4    8 ar  
     9    4   37 1   
    10    5    9 1   
    11    5   10 2   
    12    6   11 ar  
    13    6   38 1   
    14    8   11 ar  
    15    8   39 1   
    16    9   12 1   
    17    9   13 1   
    18    9   71 1   
    19   11   14 1   
    20   12   15 1   
    21   12   40 1   
    22   12   41 1   
    23   13   16 1   
    24   13   42 1   
    25   13   43 1   
    26   15   17 1   
    27   15   44 1   
    28   15   45 1   
    29   16   18 1   
    30   16   46 1   
    31   16   47 1   
    32   17   19 ar  
    33   17   20 ar  
    34   18   21 1   
    35   18   48 1   
    36   18   49 1   
    37   19   22 ar  
    38   19   50 1   
    39   20   23 ar  
    40   20   51 1   
    41   21   24 1   
    42   21   52 1   
    43   21   53 1   
    44   22   25 ar  
    45   22   54 1   
    46   23   25 ar  
    47   23   55 1   
    48   24   26 1   
    49   24   56 1   
    50   24   57 1   
    51   25   27 1   
    52   26   28 1   
    53   26   58 1   
    54   26   59 1   
    55   27   29 1   
    56   28   60 1   
    57   28   61 1   
    58   28   62 1   
    59   29   30 1   
    60   29   31 1   
    61   29   32 1   
    62   30   33 1   
    63   30   34 1   
    64   31   35 1   
    65   31   63 1   
    66   31   64 1   
    67   32   65 1   
    68   32   66 1   
    69   32   67 1   
    70   35   68 1   
    71   35   69 1   
    72   35   70 1   
@<TRIPOS>SUBSTRUCTURE
     1 331         1 TEMP              0 ****  ****    0 ROOT
