@<TRIPOS>MOLECULE
331
   71    72     1     0     0
SMALL
bcc


@<TRIPOS>ATOM
      1 C1         -1.3190   -1.3880   -3.1970 ca        1 331      0.003600
      2 N2         -2.5130   -0.6770   -2.9460 n         1 331     -0.408100
      3 C3         -0.8450   -1.4650   -4.5450 ca        1 331      0.141900
      4 C4         -0.5740   -2.0340   -2.1930 ca        1 331     -0.102000
      5 C5         -2.8810   -0.2440   -1.7000 c         1 331      0.663100
      6 C6          0.3300   -2.1670   -4.8470 ca        1 331     -0.192000
      7 F7         -1.5240   -0.8700   -5.5530 f         1 331     -0.115900
      8 C8          0.5950   -2.7230   -2.4920 ca        1 331     -0.162000
      9 N9         -4.2440    0.4450   -1.5970 n4        1 331     -0.571200
     10 O10        -2.2160   -0.3020   -0.6490 o         1 331     -0.580100
     11 C11         1.0510   -2.7920   -3.8190 ca        1 331      0.143900
     12 C12        -4.6620    0.5260   -0.1630 c3        1 331      0.125800
     13 C13        -4.1830    1.7770   -2.2700 c3        1 331      0.092800
     14 F14         2.1890   -3.4640   -4.1110 f         1 331     -0.130900
     15 C15        -6.0820    1.0620    0.0750 c3        1 331     -0.036100
     16 C16        -3.0740    2.6960   -1.7800 c3        1 331     -0.098400
     17 C17        -7.0110    0.5390   -0.9590 ca        1 331     -0.159300
     18 C18        -3.0330    3.9380   -2.6460 c3        1 331     -0.078400
     19 C19        -7.4950    1.3870   -1.9640 ca        1 331     -0.125000
     20 C20        -7.2260   -0.8430   -1.0510 ca        1 331     -0.125000
     21 C21        -1.9530    4.8880   -2.1740 c3        1 331     -0.078400
     22 C22        -7.9340    0.8490   -3.1700 ca        1 331     -0.119000
     23 C23        -7.6680   -1.3950   -2.2480 ca        1 331     -0.119000
     24 C24        -1.9050    6.1300   -3.0390 c3        1 331     -0.080400
     25 C25        -7.8850   -0.5430   -3.3450 ca        1 331      0.127100
     26 C26        -0.8260    7.0830   -2.5710 c3        1 331     -0.079400
     27 O27        -8.0230   -1.0680   -4.6180 os        1 331     -0.346900
     28 C28        -0.7740    8.3220   -3.4280 c3        1 331     -0.093100
     29 C29        -6.7420   -1.4160   -5.2370 c3        1 331      0.082800
     30 C30        -5.5330   -0.9590   -4.4010 c         1 331      0.888600
     31 C31        -6.7550   -0.7900   -6.6330 c3        1 331     -0.064400
     32 C32        -6.7250   -2.9360   -5.3500 c3        1 331     -0.099100
     33 O33        -5.2110   -1.6000   -3.3430 o         1 331     -0.857300
     34 O34        -4.8210    0.0430   -4.7150 o         1 331     -0.857300
     35 C35        -7.0950    0.6760   -6.6410 c3        1 331     -0.091100
     36 H36        -3.2000   -0.6640   -3.7040 hn        1 331      0.414500
     37 H37        -0.9110   -2.0000   -1.1430 ha        1 331      0.173000
     38 H38         0.6790   -2.2220   -5.8890 ha        1 331      0.171000
     39 H39         1.1650   -3.2190   -1.6930 ha        1 331      0.159000
     40 H40        -3.9170    1.1700    0.3830 hx        1 331      0.093700
     41 H41        -4.5930   -0.5230    0.2460 hx        1 331      0.093700
     42 H42        -4.0740    1.5800   -3.3840 hx        1 331      0.121200
     43 H43        -5.1850    2.2720   -2.1090 hx        1 331      0.121200
     44 H44        -6.0710    2.1830    0.0710 hc        1 331      0.067200
     45 H45        -6.3870    0.7280    1.1030 hc        1 331      0.067200
     46 H46        -3.2510    2.9880   -0.7110 hc        1 331      0.056700
     47 H47        -2.0800    2.1740   -1.8230 hc        1 331      0.056700
     48 H48        -4.0290    4.4540   -2.6160 hc        1 331      0.051700
     49 H49        -2.8410    3.6480   -3.7130 hc        1 331      0.051700
     50 H50        -7.4710    2.4780   -1.8260 ha        1 331      0.131500
     51 H51        -6.9710   -1.4970   -0.2050 ha        1 331      0.131500
     52 H52        -2.1450    5.1790   -1.1080 hc        1 331      0.042700
     53 H53        -0.9580    4.3720   -2.2030 hc        1 331      0.042700
     54 H54        -8.2360    1.4940   -4.0080 ha        1 331      0.157500
     55 H55        -7.7340   -2.4850   -2.3830 ha        1 331      0.157500
     56 H56        -1.7130    5.8400   -4.1050 hc        1 331      0.042700
     57 H57        -2.9010    6.6470   -3.0110 hc        1 331      0.042700
     58 H58         0.1690    6.5640   -2.5980 hc        1 331      0.039200
     59 H59        -1.0180    7.3720   -1.5040 hc        1 331      0.039200
     60 H60        -0.5590    8.0560   -4.4920 hc        1 331      0.034367
     61 H61         0.0280    9.0100   -3.0670 hc        1 331      0.034367
     62 H62        -1.7480    8.8660   -3.3940 hc        1 331      0.034367
     63 H63        -7.4960   -1.3480   -7.2640 hc        1 331      0.046200
     64 H64        -5.7330   -0.9410   -7.0720 hc        1 331      0.046200
     65 H65        -5.8620   -3.2520   -5.9830 hc        1 331      0.046700
     66 H66        -7.6740   -3.2970   -5.8110 hc        1 331      0.046700
     67 H67        -6.6150   -3.3870   -4.3340 hc        1 331      0.046700
     68 H69        -7.0740    1.0670   -7.6860 hc        1 331      0.036700
     69 H70        -6.3530    1.2460   -6.0270 hc        1 331      0.036700
     70 H71        -8.1150    0.8440   -6.2170 hc        1 331      0.036700
     71 H91        -4.9450   -0.1530   -2.1270 hn        1 331      0.526800
@<TRIPOS>BOND
     1    1    2 1   
     2    1    3 ar  
     3    1    4 ar  
     4    2    5 1   
     5    2   36 1   
     6    3    6 ar  
     7    3    7 1   
     8    4    8 ar  
     9    4   37 1   
    10    5    9 1   
    11    5   10 2   
    12    6   11 ar  
    13    6   38 1   
    14    8   11 ar  
    15    8   39 1   
    16    9   12 1   
    17    9   13 1   
    18    9   71 1   
    19   11   14 1   
    20   12   15 1   
    21   12   40 1   
    22   12   41 1   
    23   13   16 1   
    24   13   42 1   
    25   13   43 1   
    26   15   17 1   
    27   15   44 1   
    28   15   45 1   
    29   16   18 1   
    30   16   46 1   
    31   16   47 1   
    32   17   19 ar  
    33   17   20 ar  
    34   18   21 1   
    35   18   48 1   
    36   18   49 1   
    37   19   22 ar  
    38   19   50 1   
    39   20   23 ar  
    40   20   51 1   
    41   21   24 1   
    42   21   52 1   
    43   21   53 1   
    44   22   25 ar  
    45   22   54 1   
    46   23   25 ar  
    47   23   55 1   
    48   24   26 1   
    49   24   56 1   
    50   24   57 1   
    51   25   27 1   
    52   26   28 1   
    53   26   58 1   
    54   26   59 1   
    55   27   29 1   
    56   28   60 1   
    57   28   61 1   
    58   28   62 1   
    59   29   30 1   
    60   29   31 1   
    61   29   32 1   
    62   30   33 1   
    63   30   34 1   
    64   31   35 1   
    65   31   63 1   
    66   31   64 1   
    67   32   65 1   
    68   32   66 1   
    69   32   67 1   
    70   35   68 1   
    71   35   69 1   
    72   35   70 1   
@<TRIPOS>SUBSTRUCTURE
     1 331         1 TEMP              0 ****  ****    0 ROOT
