@<TRIPOS>MOLECULE
332
   43    43     1     0     0
SMALL
bcc


@<TRIPOS>ATOM
      1 C9         -0.3650   -0.7520    0.2300 c2        1 332      0.292000
      2 O10        -0.1770    0.0220    1.2630 os        1 332      0.022000
      3 C3          0.0980   -0.5060    2.5290 c2        1 332      0.019000
      4 C4          0.8140   -1.6330    2.8000 c2        1 332     -0.588000
      5 C6          1.3920   -2.5150    1.7350 c3        1 332      0.075000
      6 N23         2.3480   -1.7490    0.9230 n3        1 332     -0.390000
      7 N7          0.2840   -3.0470    0.9120 n2        1 332     -0.039000
      8 C11        -0.4540   -2.2300    0.2410 c2        1 332     -0.111000
      9 C13        -3.6400   -1.7840    0.0460 c2        1 332     -0.008000
     10 C18        -4.7270   -0.8760   -0.4250 c3        1 332     -0.077000
     11 C17        -5.7520   -0.6710    0.6250 c2        1 332     -0.180000
     12 C16        -5.8320   -1.3970    1.7570 c2        1 332     -0.039000
     13 C22        -6.8880   -1.1170    2.7610 c3        1 332     -0.196000
     14 C21        -6.8980   -4.0050    4.4260 c1        1 332      0.022000
     15 N20        -6.4350   -5.2080    4.5640 n3        1 332     -0.258000
     16 C19        -4.9690   -3.4260    2.9730 c1        1 332     -0.002000
     17 C15        -4.8770   -2.4720    2.0340 c2        1 332     -0.266000
     18 C14        -3.7020   -2.5280    1.1650 c2        1 332     -0.151000
     19 S5          0.9390   -1.7120    4.5910 s4        1 332      1.331000
     20 C1          0.0530   -0.4370    4.7700 c1        1 332     -0.755000
     21 C2         -0.3470    0.2800    3.7340 c2        1 332      0.002000
     22 H9         -0.5690   -0.1670   -0.7040 h4        1 332      0.253000
     23 H9A        -1.1180   -2.8140   -1.7360 h1        1 332      0.154500
     24 HN23        1.8590   -3.4430    2.1990 h2        1 332      0.139000
     25 HN2A        2.9140   -2.3560    0.3620 hn        1 332      0.190500
     26 H8         -2.6430   -5.4470    0.8470 ha        1 332      0.001000
     27 H8A        -2.5150   -5.9040    0.3630 ha        1 332      0.001000
     28 H11        -1.9690   -3.7100   -0.3660 h1        1 332      0.154500
     29 H18        -5.2040   -1.3270   -1.3410 hc        1 332      0.113000
     30 H17        -4.2890    0.1120   -0.7360 hc        1 332      0.113000
     31 H22        -6.4760    0.1310    0.4120 ha        1 332      0.145000
     32 H22A       -7.4410   -0.1770    2.5130 hc        1 332      0.096333
     33 H21        -7.6300   -1.9550    2.7940 hc        1 332      0.096333
     34 H21A       -6.4410   -1.0000    3.7800 hc        1 332      0.096333
     35 HN20       -6.1920   -3.2880    3.7900 ha        1 332      0.051000
     36 H19        -5.5660   -5.5350    4.1740 hn        1 332      0.226000
     37 H19A       -6.9530   -5.8840    5.0860 hn        1 332      0.226000
     38 H14        -2.8990   -3.2160    1.4700 ha        1 332      0.130000
     39 H1          0.0940   -2.6950    4.8110 hs        1 332     -0.050000
     40 H2         -0.8560    1.2400    3.6460 ha        1 332      0.205000
     41 C8         -1.5560   -2.7200   -0.7010 c3        1 332      0.004000
     42 O12        -2.5460   -1.7170   -0.8180 os        1 332     -0.240000
     43 H233        2.9290   -1.1780    1.5040 hn        1 332      0.190500
@<TRIPOS>BOND
     1    1    2 1   
     2    1    8 1   
     3    1   22 1   
     4    2    3 1   
     5    3    4 1   
     6    3   21 1   
     7    4    5 1   
     8    4   19 1   
     9    5    6 1   
    10    5    7 1   
    11    5   24 1   
    12    6   25 1   
    13    6   43 1   
    14    7    8 1   
    15    8   41 1   
    16    9   10 1   
    17    9   18 1   
    18    9   42 1   
    19   10   11 1   
    20   10   29 1   
    21   10   30 1   
    22   11   12 1   
    23   11   31 1   
    24   12   13 1   
    25   12   17 1   
    26   13   32 1   
    27   13   33 1   
    28   13   34 1   
    29   14   15 1   
    30   14   35 1   
    31   15   36 1   
    32   15   37 1   
    33   16   17 1   
    34   17   18 1   
    35   18   38 1   
    36   19   20 1   
    37   19   39 1   
    38   20   21 1   
    39   21   40 1   
    40   23   41 1   
    41   26   27 1   
    42   28   41 1   
    43   41   42 1   
@<TRIPOS>SUBSTRUCTURE
     1 332         1 TEMP              0 ****  ****    0 ROOT
