@<TRIPOS>MOLECULE
332
   42    39     1     0     0
SMALL
bcc


@<TRIPOS>ATOM
      1 C9          2.7940    1.3780    0.6430 c3        1 332     -0.047000
      2 O10         4.2050    1.3710    0.6570 os        1 332     -0.178000
      3 C3          4.6980    1.4120    1.9790 c2        1 332      0.090000
      4 C4          4.4570    0.1550    2.6640 c1        1 332     -0.468000
      5 C6          4.3330   -0.9930    1.6690 c1        1 332      0.175000
      6 N23         5.1850   -2.1300    1.7830 n3        1 332     -0.320000
      7 N7          3.3850   -0.9170    0.6070 n1        1 332     -0.279000
      8 C8          1.1500   -0.3420   -0.3500 c3        1 332     -0.010000
      9 C11         2.2550   -0.0480    0.7170 c2        1 332     -0.048000
     10 O12         0.0410    0.5430   -0.1460 os        1 332     -0.225000
     11 C13        -1.1460    0.1670   -0.8670 c2        1 332      0.082000
     12 C18        -1.0660   -0.1340   -2.2540 c1        1 332     -0.201000
     13 C17        -2.2420   -0.3900   -2.9910 c1        1 332     -0.094000
     14 C16        -3.4810   -0.3480   -2.3620 c1        1 332     -0.093000
     15 C22        -4.7900   -0.7690   -3.0800 c2        1 332     -0.115000
     16 C21        -5.9360   -0.9600   -2.2500 c3        1 332     -0.071000
     17 N20        -6.0700   -0.1080   -1.1550 n3        1 332     -0.298000
     18 C19        -5.0090   -0.0000   -0.2950 c3        1 332     -0.039000
     19 C15        -3.5630   -0.0420   -0.9530 c2        1 332     -0.038000
     20 C14        -2.3990    0.2100   -0.2270 c2        1 332     -0.157000
     21 S5          4.9360    0.3140    4.1420 ss        1 332      0.569000
     22 C1          5.4850    1.7630    4.3050 c1        1 332     -0.405000
     23 C2          5.3520    2.4380    3.0230 c1        1 332     -0.171000
     24 H9          2.4860    1.8590    1.4360 h1        1 332      0.118000
     25 H9A         2.5010    1.7690   -0.2060 h1        1 332      0.118000
     26 HN23        5.2820   -2.7020    1.0750 hn        1 332      0.187000
     27 HN2A        5.6030   -2.3080    2.5720 hn        1 332      0.187000
     28 H8          1.5180   -0.2030   -1.2460 h1        1 332      0.093000
     29 H8A         0.8510   -1.2650   -0.2620 h1        1 332      0.093000
     30 H11         1.7680   -0.2020    1.5470 ha        1 332      0.124000
     31 H18        -0.1960   -0.1930   -2.6900 ha        1 332      0.140000
     32 H17        -2.1850   -0.5960   -3.9430 ha        1 332      0.132000
     33 H22        -4.6170   -1.6110   -3.5570 ha        1 332      0.095000
     34 H22A       -5.0060   -0.0820   -3.7410 ha        1 332      0.095000
     35 H21        -6.7360   -0.8570   -2.8130 h1        1 332      0.069000
     36 H21A       -5.9150   -1.8800   -1.9160 h1        1 332      0.069000
     37 HN20       -6.8230   -0.3330   -0.6850 hn        1 332      0.160000
     38 H19        -5.0660   -0.7450    0.3370 h1        1 332      0.082500
     39 H19A       -5.0950    0.8550    0.1700 h1        1 332      0.082500
     40 H14        -2.4550    0.4390    0.7180 ha        1 332      0.148000
     41 H1          5.8980    2.1340    5.1100 DU        1 332      0.174500
     42 H2          5.6150    3.3540    2.8320 DU        1 332      0.174500
@<TRIPOS>BOND
     1    1    2 1   
     2    1    9 1   
     3    1   24 1   
     4    1   25 1   
     5    2    3 1   
     6    3    4 1   
     7    3   23 1   
     8    4   21 1   
     9    5    6 1   
    10    5    7 1   
    11    6   26 1   
    12    6   27 1   
    13    8    9 1   
    14    8   10 1   
    15    8   28 1   
    16    8   29 1   
    17    9   30 1   
    18   10   11 1   
    19   11   12 1   
    20   11   20 1   
    21   12   31 1   
    22   13   14 1   
    23   13   32 1   
    24   14   19 1   
    25   15   16 1   
    26   15   33 1   
    27   15   34 1   
    28   16   17 1   
    29   16   35 1   
    30   16   36 1   
    31   17   18 1   
    32   17   37 1   
    33   18   19 1   
    34   18   38 1   
    35   18   39 1   
    36   19   20 1   
    37   20   40 1   
    38   21   22 1   
    39   22   23 1   
@<TRIPOS>SUBSTRUCTURE
     1 332         1 TEMP              0 ****  ****    0 ROOT
