@<TRIPOS>MOLECULE
332
   43    44     1     0     0
SMALL
bcc


@<TRIPOS>ATOM
      1 C9         -1.2660   -0.4240    1.9820 c2        1 332      0.182000
      2 O10        -0.3280   -0.7870    1.0600 os        1 332     -0.126000
      3 C3          1.0620   -0.5750    1.4390 c3        1 332      0.073000
      4 C4          1.4200   -1.2450    2.7900 c2        1 332     -0.822000
      5 C6          0.3630   -1.0480    3.6630 cu        1 332      0.078000
      6 N23         2.3670   -3.8340    2.8000 nz        1 332     -0.366000
      7 N7         -0.6890   -1.3830    4.3390 n2        1 332     -0.047000
      8 C11        -0.8470   -0.2290    3.4020 cx        1 332     -0.227000
      9 C13        -4.5100   -1.1250    1.2010 c2        1 332     -0.119000
     10 C18        -5.0410   -1.3580   -0.1630 c3        1 332     -0.082000
     11 C17        -5.9630   -2.5220   -0.1670 c2        1 332     -0.170000
     12 C16        -6.3040   -3.2300    0.9250 c2        1 332     -0.048000
     13 C22        -7.2390   -4.3790    0.8430 c3        1 332     -0.180000
     14 C21        -6.4360   -4.1710    4.4620 c2        1 332      0.073000
     15 N20        -7.3860   -3.7940    5.3860 n8        1 332     -0.340000
     16 C19        -6.1290   -3.5290    3.3530 c1        1 332     -0.264000
     17 C15        -5.7750   -2.9030    2.2560 c2        1 332      0.022000
     18 C14        -4.8110   -1.8040    2.3200 c2        1 332     -0.034000
     19 S5          2.7640   -2.0370    2.7160 s4        1 332      1.288000
     20 C1          2.9700   -1.8660    1.0360 c2        1 332     -0.696000
     21 C2          1.9930   -1.1620    0.4280 c1        1 332     -0.069000
     22 H9         -1.4770   -0.5810   -0.9880 ha        1 332      0.003250
     23 H9A        -1.0820    0.7690    3.8200 h1        1 332      0.193000
     24 HN23        2.3190   -4.2470    1.8710 hn        1 332      0.227000
     25 HN2A        1.4820   -4.0050    3.2660 hn        1 332      0.227000
     26 H8         -0.6370   -0.2120   -2.9720 ha        1 332      0.003250
     27 H8A         0.0310   -0.2320   -3.0810 ha        1 332      0.003250
     28 H11        -2.0630   -0.6680   -0.6520 ha        1 332      0.003250
     29 H18        -4.1900   -1.5400   -0.8780 hc        1 332      0.123500
     30 H17        -5.5870   -0.4390   -0.5210 hc        1 332      0.123500
     31 H22        -6.3710   -2.7740   -1.1600 ha        1 332      0.153000
     32 H22A       -7.5550   -4.5730   -0.2120 hc        1 332      0.092667
     33 H21        -8.1530   -4.1720    1.4540 hc        1 332      0.092667
     34 H21A       -6.7520   -5.3020    1.2440 hc        1 332      0.092667
     35 HN20       -5.8430   -5.0710    4.7420 h4        1 332      0.163000
     36 H19        -7.7480   -4.5190    5.9620 hn        1 332      0.212500
     37 H19A       -8.0460   -3.1030    5.1120 hn        1 332      0.212500
     38 H14        -4.3750   -1.5640    3.3040 ha        1 332      0.159000
     39 H1          3.8470   -2.2800    0.5400 h4        1 332      0.194000
     40 H2          1.2290    0.5380    1.4990 h1        1 332      0.157000
     41 C8         -2.4670   -0.0250    1.5420 c1        1 332      0.088000
     42 O12        -3.6840    0.0620    1.2590 os        1 332      0.116000
     43 H233        3.0950   -4.3130    3.3220 hn        1 332      0.227000
@<TRIPOS>BOND
     1    1    2 1   
     2    1    8 1   
     3    1   41 1   
     4    2    3 1   
     5    3    4 1   
     6    3   21 1   
     7    3   40 1   
     8    4    5 1   
     9    4   19 1   
    10    5    7 1   
    11    5    8 1   
    12    6   19 1   
    13    6   24 1   
    14    6   25 1   
    15    6   43 1   
    16    7    8 1   
    17    8   23 1   
    18    9   10 1   
    19    9   18 1   
    20    9   42 1   
    21   10   11 1   
    22   10   29 1   
    23   10   30 1   
    24   11   12 1   
    25   11   31 1   
    26   12   13 1   
    27   12   17 1   
    28   13   32 1   
    29   13   33 1   
    30   13   34 1   
    31   14   15 1   
    32   14   16 1   
    33   14   35 1   
    34   15   36 1   
    35   15   37 1   
    36   16   17 1   
    37   17   18 1   
    38   18   38 1   
    39   19   20 1   
    40   20   21 1   
    41   20   39 1   
    42   22   28 1   
    43   26   27 1   
    44   41   42 1   
@<TRIPOS>SUBSTRUCTURE
     1 332         1 TEMP              0 ****  ****    0 ROOT
