@<TRIPOS>MOLECULE
332
   42    45     1     0     0
SMALL
bcc


@<TRIPOS>ATOM
      1 C9         -2.4510   -1.9700    0.1870 c3        1 332      0.108400
      2 O10        -3.5610   -1.6320    1.0160 os        1 332     -0.298900
      3 C3         -4.3240   -0.5620    0.6480 cc        1 332      0.130100
      4 C4         -4.1250    0.4310   -0.3040 cd        1 332     -0.296000
      5 C6         -2.9890    0.6150   -1.2140 cf        1 332      0.684800
      6 N23        -3.2340    1.5500   -2.2580 nh        1 332     -0.883800
      7 N7         -1.8060    0.0670   -1.1040 n2        1 332     -0.666900
      8 C11        -1.4860   -0.7800    0.0130 c3        1 332      0.107500
      9 C13         2.1550   -0.4920    0.1910 ca        1 332      0.130100
     10 C18         2.7380   -1.6810   -0.2610 ca        1 332     -0.203000
     11 C17         4.1230   -1.7490   -0.3950 ca        1 332     -0.094000
     12 C16         4.9330   -0.6530   -0.0840 ca        1 332     -0.109300
     13 C22         6.4100   -0.7720   -0.2180 c3        1 332     -0.067100
     14 C21         7.1160    0.5850   -0.1510 c3        1 332      0.150800
     15 N20         6.5980    1.5030    0.8430 n3        1 332     -0.793200
     16 C19         5.1770    1.7440    0.6780 c3        1 332      0.191100
     17 C15         4.3370    0.5360    0.3700 ca        1 332     -0.080300
     18 C14         2.9530    0.6230    0.5070 ca        1 332     -0.149000
     19 S5         -5.4060    1.5340   -0.2700 ss        1 332      0.077200
     20 C1         -6.2210    0.7400    0.9380 cd        1 332     -0.150100
     21 C2         -5.5580   -0.3830    1.3730 cc        1 332     -0.174000
     22 H9         -1.9690   -2.8050    0.7640 h1        1 332      0.068200
     23 H9A        -2.8240   -2.3520   -0.7990 h1        1 332      0.068200
     24 HN23       -4.0810    1.3480   -2.7470 hn        1 332      0.392800
     25 HN2A       -2.4630    1.6830   -2.8800 hn        1 332      0.392800
     26 H8          0.0740   -2.2560    0.4940 h1        1 332      0.047200
     27 H8A         0.2160   -1.5530   -1.1960 h1        1 332      0.047200
     28 H11        -1.5140   -0.1770    0.9760 h1        1 332      0.089700
     29 H18         2.1240   -2.5570   -0.5090 ha        1 332      0.134000
     30 H17         4.5870   -2.6820   -0.7510 ha        1 332      0.130000
     31 H22         6.7930   -1.4370    0.6020 hc        1 332      0.051200
     32 H22A        6.6670   -1.2650   -1.1930 hc        1 332      0.051200
     33 H21         8.2090    0.4200    0.0590 h1        1 332      0.054700
     34 H21A        7.0300    1.0900   -1.1550 h1        1 332      0.054700
     35 HN20        6.7760    1.1380    1.7630 hn        1 332      0.351800
     36 H19         4.7870    2.2440    1.6100 h1        1 332      0.064200
     37 H19A        5.0580    2.4720   -0.1770 h1        1 332      0.064200
     38 H14         2.4750    1.5480    0.8570 ha        1 332      0.151000
     39 H1         -7.1750    1.0880    1.3350 h4        1 332      0.177000
     40 H2         -5.8780   -1.0690    2.1590 ha        1 332      0.170000
     41 C8         -0.0500   -1.3330   -0.1310 c3        1 332      0.146400
     42 O12         0.8020   -0.3090    0.3960 os        1 332     -0.322900
@<TRIPOS>BOND
     1    1    2 1   
     2    1    8 1   
     3    1   22 1   
     4    1   23 1   
     5    2    3 1   
     6    3    4 2   
     7    3   21 1   
     8    4    5 1   
     9    4   19 1   
    10    5    6 1   
    11    5    7 2   
    12    6   24 1   
    13    6   25 1   
    14    7    8 1   
    15    8   28 1   
    16    8   41 1   
    17    9   10 ar  
    18    9   18 ar  
    19    9   42 1   
    20   10   11 ar  
    21   10   29 1   
    22   11   12 ar  
    23   11   30 1   
    24   12   13 1   
    25   12   17 ar  
    26   13   14 1   
    27   13   31 1   
    28   13   32 1   
    29   14   15 1   
    30   14   33 1   
    31   14   34 1   
    32   15   16 1   
    33   15   35 1   
    34   16   17 1   
    35   16   36 1   
    36   16   37 1   
    37   17   18 ar  
    38   18   38 1   
    39   19   20 1   
    40   20   21 2   
    41   20   39 1   
    42   21   40 1   
    43   26   41 1   
    44   27   41 1   
    45   41   42 1   
@<TRIPOS>SUBSTRUCTURE
     1 332         1 TEMP              0 ****  ****    0 ROOT
