@<TRIPOS>MOLECULE
333
   42    46     1     0     0
SMALL
bcc


@<TRIPOS>ATOM
      1 C36        -1.5090   -1.5640   -1.0180 ca        1 333     -0.101000
      2 C35        -2.6190   -2.3110   -0.6880 ca        1 333      0.064100
      3 O39        -3.3970   -3.1160   -1.5130 os        1 333     -0.330900
      4 C38        -4.4390   -3.6820   -0.6830 c3        1 333      0.320200
      5 O37        -4.2560   -3.1790    0.6620 os        1 333     -0.330900
      6 C34        -3.1420   -2.3490    0.6340 ca        1 333      0.059100
      7 C33        -2.5680   -1.6440    1.6720 ca        1 333     -0.108000
      8 C32        -1.4280   -0.8820    1.3600 ca        1 333     -0.125000
      9 C31        -0.9330   -0.8470    0.0540 ca        1 333      0.089100
     10 O28         0.1170    0.0460   -0.1950 os        1 333     -0.357400
     11 C23         1.3380   -0.4740   -0.5810 ca        1 333      0.680600
     12 N22         1.5300   -1.8090   -0.7390 nb        1 333     -0.787000
     13 C24         2.3570    0.4920   -0.7900 ca        1 333     -0.406600
     14 C25         3.6080   -0.0110   -1.1760 ca        1 333      0.466200
     15 N26         3.8710   -1.3220   -1.3520 nb        1 333     -0.704000
     16 C21         2.8030   -2.1580   -1.1230 ca        1 333      0.870300
     17 O17         3.1280   -3.4950   -1.3240 os        1 333     -0.332400
     18 C14         2.0990   -4.4310   -1.1680 ca        1 333      0.086100
     19 C15         1.6130   -4.7610    0.1010 ca        1 333     -0.097000
     20 C16         0.6860   -5.7880    0.2300 ca        1 333     -0.139500
     21 C13         1.6690   -5.1130   -2.3120 ca        1 333     -0.097000
     22 C12         0.7510   -6.1480   -2.1820 ca        1 333     -0.139500
     23 C11         0.2400   -6.4940   -0.9100 ca        1 333      0.019800
     24 N3         -0.7060   -7.5250   -0.7840 na        1 333     -0.143000
     25 C4         -0.9340   -8.3250    0.3470 cc        1 333     -0.244600
     26 C5         -1.9840   -9.1910    0.0060 cd        1 333      0.294200
     27 NFE        -2.4110   -8.9410   -1.3010 nd        1 333     -0.663000
     28 C2         -1.6360   -7.9420   -1.7600 cc        1 333      0.400400
     29 H36        -1.0890   -1.5300   -2.0310 ha        1 333      0.171000
     30 H381       -4.3200   -4.7930   -0.6670 h2        1 333      0.077700
     31 H382       -5.4290   -3.3290   -1.0630 h2        1 333      0.077700
     32 H33        -2.9740   -1.6740    2.6910 ha        1 333      0.161000
     33 H32        -0.9290   -0.2980    2.1470 ha        1 333      0.155000
     34 H24         2.1610    1.5600   -0.6550 ha        1 333      0.174000
     35 H25         4.4620    0.6690   -1.3600 h4        1 333      0.039100
     36 H15         1.9540   -4.2030    0.9860 ha        1 333      0.156500
     37 H16         0.2960   -6.0380    1.2290 ha        1 333      0.148000
     38 H13         2.0690   -4.8380   -3.2990 ha        1 333      0.156500
     39 H12         0.4270   -6.6930   -3.0820 ha        1 333      0.148000
     40 H4         -0.3460   -8.2290    1.2570 h4        1 333      0.181000
     41 H5         -2.4470   -9.9660    0.6160 h4        1 333      0.045100
     42 H2         -1.6980   -7.4810   -2.7510 h5        1 333      0.065100
@<TRIPOS>BOND
     1    1    2 ar  
     2    1    9 ar  
     3    1   29 1   
     4    2    3 1   
     5    2    6 ar  
     6    3    4 1   
     7    4    5 1   
     8    4   30 1   
     9    4   31 1   
    10    5    6 1   
    11    6    7 ar  
    12    7    8 ar  
    13    7   32 1   
    14    8    9 ar  
    15    8   33 1   
    16    9   10 1   
    17   10   11 1   
    18   11   12 ar  
    19   11   13 ar  
    20   12   16 ar  
    21   13   14 ar  
    22   13   34 1   
    23   14   15 ar  
    24   14   35 1   
    25   15   16 ar  
    26   16   17 1   
    27   17   18 1   
    28   18   19 ar  
    29   18   21 ar  
    30   19   20 ar  
    31   19   36 1   
    32   20   23 ar  
    33   20   37 1   
    34   21   22 ar  
    35   21   38 1   
    36   22   23 ar  
    37   22   39 1   
    38   23   24 1   
    39   24   25 1   
    40   24   28 1   
    41   25   26 2   
    42   25   40 1   
    43   26   27 1   
    44   26   41 1   
    45   27   28 2   
    46   28   42 1   
@<TRIPOS>SUBSTRUCTURE
     1 333         1 TEMP              0 ****  ****    0 ROOT
