@<TRIPOS>MOLECULE
333
   42    36     1     0     0
SMALL
bcc


@<TRIPOS>ATOM
      1 C36         3.3990   -3.0450   -0.0290 c1        1 333     -0.101000
      2 C35         3.0440   -3.8090    1.1150 c1        1 333      0.019000
      3 O39         3.7830   -4.1750    2.2930 os        1 333     -0.214000
      4 C38         2.9460   -4.9840    3.1020 c3        1 333      0.098000
      5 O37         1.7620   -5.2070    2.4000 os        1 333     -0.213000
      6 C34         1.7960   -4.3900    1.1960 c2        1 333      0.014000
      7 C33         0.8790   -4.2270    0.1520 c2        1 333     -0.107000
      8 C32         1.2310   -3.4700   -0.9800 c1        1 333     -0.125000
      9 C31         2.4940   -2.8830   -1.0610 c1        1 333      0.044000
     10 O28         2.8380   -2.1120   -2.1790 os        1 333     -0.142000
     11 C23         2.4260   -0.8040   -1.9820 c2        1 333      0.182000
     12 N22         1.2260   -0.4100   -2.4360 n2        1 333     -0.261000
     13 C24         3.3050    0.1170   -1.5020 c1        1 333     -0.276000
     14 C25         2.9660    1.4340   -1.4830 c1        1 333      0.001000
     15 N26         1.7620    1.8240   -1.9400 n1        1 333     -0.178000
     16 C21         0.8880    0.9040   -2.4170 c1        1 333      0.174000
     17 O17        -0.3410    1.3170   -2.9560 os        1 333     -0.117000
     18 C14        -1.1650    1.8240   -1.9190 c2        1 333      0.040000
     19 C15        -2.0470    0.9830   -1.2630 c2        1 333     -0.093000
     20 C16        -2.9180    1.4940   -0.3210 c1        1 333     -0.140000
     21 C13        -1.1570    3.1940   -1.6280 c1        1 333     -0.100000
     22 C12        -2.0330    3.7070   -0.6800 c1        1 333     -0.140000
     23 C11        -2.9090    2.8700   -0.0280 c1        1 333      0.065000
     24 N3         -3.7170    3.3580    0.9250 n2        1 333     -0.129500
     25 C4         -3.4210    3.4710    2.2230 c1        1 333     -0.163500
     26 C5         -4.5440    3.9120    2.8770 c1        1 333     -0.163500
     27 NFE        -5.5210    4.0640    1.9680 n2        1 333     -0.129500
     28 C2         -5.0200    3.7250    0.7560 c1        1 333     -0.086000
     29 H36         4.3130   -2.6200   -0.0870 ha        1 333      0.171000
     30 H381        3.4090   -5.8780    3.2730 h2        1 333      0.116500
     31 H382        2.7420   -4.5030    3.9390 h2        1 333      0.116500
     32 H33         0.0070   -4.6330    0.2070 ha        1 333      0.161000
     33 H32         0.5920   -3.3560   -1.7090 ha        1 333      0.155000
     34 H24         4.2000   -0.1750   -1.1620 ha        1 333      0.174000
     35 H25         3.5990    2.1000   -1.1370 ha        1 333      0.176000
     36 H15        -2.0540   -0.0290   -1.4790 ha        1 333      0.156000
     37 H16        -3.5530    0.8870    0.1520 ha        1 333      0.147000
     38 H13        -0.5380    3.7850   -2.0880 ha        1 333      0.157000
     39 H12        -2.0270    4.6530   -0.4780 ha        1 333      0.148000
     40 H4         -2.5080    3.2630    2.6560 DU        1 333      0.188333
     41 H5         -4.6190    4.0820    3.8200 DU        1 333      0.188333
     42 H2         -5.5170    3.7400   -0.1090 DU        1 333      0.188333
@<TRIPOS>BOND
     1    1    9 1   
     2    1   29 1   
     3    2    3 1   
     4    2    6 1   
     5    3    4 1   
     6    4    5 1   
     7    4   30 1   
     8    4   31 1   
     9    5    6 1   
    10    6    7 1   
    11    7    8 1   
    12    7   32 1   
    13    8   33 1   
    14    9   10 1   
    15   10   11 1   
    16   11   12 1   
    17   11   13 1   
    18   12   16 1   
    19   13   34 1   
    20   14   15 1   
    21   14   35 1   
    22   16   17 1   
    23   17   18 1   
    24   18   19 1   
    25   18   21 1   
    26   19   20 1   
    27   19   36 1   
    28   20   37 1   
    29   21   38 1   
    30   22   23 1   
    31   22   39 1   
    32   24   25 1   
    33   24   28 1   
    34   25   26 1   
    35   26   27 1   
    36   27   28 1   
@<TRIPOS>SUBSTRUCTURE
     1 333         1 TEMP              0 ****  ****    0 ROOT
