@<TRIPOS>MOLECULE
333
   42    46     1     0     0
SMALL
bcc


@<TRIPOS>ATOM
      1 C36        -0.0240   -0.0470   -0.2080 ca        1 333     -0.101000
      2 C35         1.3100    0.2960   -0.2650 ca        1 333      0.064100
      3 O39         2.2920    0.1110    0.7020 os        1 333     -0.330900
      4 C38         3.5230    0.6390    0.1540 c3        1 333      0.320200
      5 O37         3.2350    1.1510   -1.1690 os        1 333     -0.330900
      6 C34         1.8830    0.9280   -1.4010 ca        1 333      0.059100
      7 C33         1.1410    1.2370   -2.5240 ca        1 333     -0.108000
      8 C32        -0.2200    0.8880   -2.4930 ca        1 333     -0.125000
      9 C31        -0.7710    0.2750   -1.3640 ca        1 333      0.089100
     10 O28        -2.1590    0.0930   -1.3640 os        1 333     -0.357400
     11 C23        -2.6470   -1.2000   -1.3370 ca        1 333      0.680600
     12 N22        -1.8200   -2.2770   -1.2920 nb        1 333     -0.787000
     13 C24        -4.0630   -1.3030   -1.3630 ca        1 333     -0.406600
     14 C25        -4.5830   -2.6050   -1.3440 ca        1 333      0.466200
     15 N26        -3.8240   -3.7190   -1.2990 nb        1 333     -0.704000
     16 C21        -2.4670   -3.4890   -1.2730 ca        1 333      0.870300
     17 O17        -1.7340   -4.6700   -1.2210 os        1 333     -0.332400
     18 C14        -0.3420   -4.5510   -1.1390 ca        1 333      0.086100
     19 C15         0.4120   -4.1540   -2.2480 ca        1 333     -0.097000
     20 C16         1.8000   -4.1750   -2.1700 ca        1 333     -0.139500
     21 C13         0.2710   -4.9670    0.0480 ca        1 333     -0.097000
     22 C12         1.6590   -4.9990    0.1210 ca        1 333     -0.139500
     23 C11         2.4420   -4.5950   -0.9830 ca        1 333      0.019800
     24 N3          3.8450   -4.6060   -0.8980 na        1 333     -0.143000
     25 C4          4.7520   -4.7400   -1.9620 cc        1 333     -0.244600
     26 C5          6.0330   -4.6690   -1.3930 cd        1 333      0.294200
     27 NFE         5.9370   -4.4900   -0.0100 nd        1 333     -0.663000
     28 C2          4.6220   -4.4550    0.2700 cc        1 333      0.400400
     29 H36        -0.4790   -0.5410    0.6570 ha        1 333      0.171000
     30 H381        4.2610   -0.1960    0.0610 h2        1 333      0.077700
     31 H382        3.8650    1.4870    0.7970 h2        1 333      0.077700
     32 H33         1.5860    1.7260   -3.4000 ha        1 333      0.161000
     33 H32        -0.8610    1.1100   -3.3590 ha        1 333      0.155000
     34 H24        -4.6940   -0.4100   -1.3970 ha        1 333      0.174000
     35 H25        -5.6750   -2.7810   -1.3640 h4        1 333      0.039100
     36 H15        -0.0900   -3.8180   -3.1670 ha        1 333      0.156500
     37 H16         2.3920   -3.8510   -3.0400 ha        1 333      0.148000
     38 H13        -0.3430   -5.2790    0.9050 ha        1 333      0.156500
     39 H12         2.1390   -5.3420    1.0520 ha        1 333      0.148000
     40 H4          4.4270   -4.8840   -2.9900 h4        1 333      0.181000
     41 H5          6.9990   -4.7370   -1.8910 h4        1 333      0.045100
     42 H2          4.1760   -4.3180    1.2610 h5        1 333      0.065100
@<TRIPOS>BOND
     1    1    2 ar  
     2    1    9 ar  
     3    1   29 1   
     4    2    3 1   
     5    2    6 ar  
     6    3    4 1   
     7    4    5 1   
     8    4   30 1   
     9    4   31 1   
    10    5    6 1   
    11    6    7 ar  
    12    7    8 ar  
    13    7   32 1   
    14    8    9 ar  
    15    8   33 1   
    16    9   10 1   
    17   10   11 1   
    18   11   12 ar  
    19   11   13 ar  
    20   12   16 ar  
    21   13   14 ar  
    22   13   34 1   
    23   14   15 ar  
    24   14   35 1   
    25   15   16 ar  
    26   16   17 1   
    27   17   18 1   
    28   18   19 ar  
    29   18   21 ar  
    30   19   20 ar  
    31   19   36 1   
    32   20   23 ar  
    33   20   37 1   
    34   21   22 ar  
    35   21   38 1   
    36   22   23 ar  
    37   22   39 1   
    38   23   24 1   
    39   24   25 1   
    40   24   28 1   
    41   25   26 2   
    42   25   40 1   
    43   26   27 1   
    44   26   41 1   
    45   27   28 2   
    46   28   42 1   
@<TRIPOS>SUBSTRUCTURE
     1 333         1 TEMP              0 ****  ****    0 ROOT
