@<TRIPOS>MOLECULE
334
   34    26     1     0     0
SMALL
bcc


@<TRIPOS>ATOM
      1 C1         -0.3070    0.2610   -3.5780 c1        1 334     -0.216000
      2 C2          1.0840    0.2180   -3.5600 c1        1 334     -0.123500
      3 C3          1.7700    0.1730   -2.3360 c1        1 334     -0.123500
      4 C4          1.0470    0.1700   -1.1190 c1        1 334      0.003500
      5 C5         -0.3230    0.2120   -1.1370 c1        1 334      0.003500
      6 C6         -1.0190    0.2590   -2.3850 c1        1 334     -0.089000
      7 C7         -1.0540    0.3220   -4.9500 c2        1 334      0.353000
      8 N1         -1.4610    1.5750   -5.4820 n3        1 334     -0.344000
      9 N2         -1.3130   -0.8220   -5.6340 n2        1 334     -0.350000
     10 N3          1.4510    0.1310    0.1870 n1        1 334     -0.225500
     11 N4         -0.7610    0.2000    0.1530 n1        1 334     -0.225500
     12 C8          0.3360    0.1500    0.9740 c2        1 334      0.201000
     13 C1'         0.2330    0.1630    2.3640 c1        1 334     -0.304000
     14 C2'         0.2480   -1.0290    3.0700 c1        1 334      0.012000
     15 C3'         0.1240   -1.0170    4.4710 c1        1 334     -0.222000
     16 CV'         0.2570   -2.3170    5.2580 c2        1 334     -0.147000
     17 C4'        -0.0140    0.1850    5.1440 c2        1 334     -0.015000
     18 C5'        -0.0290    1.3790    4.4350 c1        1 334     -0.294000
     19 C6'         0.0950    1.3680    3.0400 c1        1 334      0.323000
     20 O6'         0.0770    2.5530    2.3370 o         1 334     -0.455000
     21 BR5'       -0.2910    3.0550    5.3700 br        1 334      0.016000
     22 HC2         1.5580    0.2190   -4.3590 ha        1 334      0.135500
     23 HC3         2.7860    0.1390   -2.3240 ha        1 334      0.135500
     24 HC6        -1.9850    0.2900   -2.3990 ha        1 334      0.140000
     25 HH11       -1.1920    2.3720   -5.0740 hn        1 334      0.264000
     26 HH12       -2.0140    1.5980   -6.2370 hn        1 334      0.264000
     27 HH21       -1.0590   -1.6090   -5.3040 DU        1 334      0.293000
     28 HH22       -1.7630   -0.7830   -6.4580 hn        1 334      0.247000
     29 HN3         2.3600    0.0960    0.4960 DU        1 334      0.293000
     30 HC2'        0.3950   -1.8910    2.5890 ha        1 334      0.130000
     31 H32'        0.4970   -2.1050    6.2240 ha        1 334      0.065333
     32 H33'        0.9890   -2.8930    4.8440 ha        1 334      0.065333
     33 H34'       -0.6170   -2.8170    5.2320 ha        1 334      0.065333
     34 HC4'       -0.1030    0.1940    6.1480 ha        1 334      0.125000
@<TRIPOS>BOND
     1    1    6 1   
     2    1    7 1   
     3    2    3 1   
     4    2   22 1   
     5    3   23 1   
     6    4    5 1   
     7    6   24 1   
     8    7    8 1   
     9    7    9 1   
    10    8   25 1   
    11    8   26 1   
    12    9   28 1   
    13   10   12 1   
    14   11   12 1   
    15   12   13 1   
    16   13   19 1   
    17   14   15 1   
    18   14   30 1   
    19   15   17 1   
    20   16   31 1   
    21   16   32 1   
    22   16   33 1   
    23   17   18 1   
    24   17   34 1   
    25   18   21 1   
    26   19   20 1   
@<TRIPOS>SUBSTRUCTURE
     1 334         1 TEMP              0 ****  ****    0 ROOT
