@<TRIPOS>MOLECULE
334
   34    36     1     0     0
SMALL
bcc


@<TRIPOS>ATOM
      1 C1         -4.9550   -0.2070   -0.0560 ca        1 334     -0.299900
      2 C2         -4.5990   -1.5570    0.1580 ca        1 334     -0.100000
      3 C3         -3.2760   -1.9410    0.3110 ca        1 334     -0.147000
      4 C4         -2.2910   -0.9500    0.2590 ca        1 334      0.034000
      5 C5         -2.6470    0.4700    0.0390 ca        1 334     -0.027000
      6 C6         -3.9820    0.8120   -0.1170 ca        1 334     -0.089000
      7 C7         -6.3650    0.1500   -0.2260 ce        1 334      0.530400
      8 N1         -7.3160   -0.5080    0.4930 nh        1 334     -0.501100
      9 N2         -6.7020    1.1320   -1.1050 nh        1 334     -0.485200
     10 N3         -0.9240   -0.9750    0.3770 na        1 334     -0.240600
     11 N4         -1.4920    1.2460    0.0310 nc        1 334     -0.373600
     12 C8         -0.4470    0.3700    0.2340 cc        1 334      0.314500
     13 C1'         0.9430    0.7010    0.3020 cd        1 334     -0.323200
     14 C2'         1.3160    2.0580    0.1560 cd        1 334      0.012000
     15 C3'         2.6300    2.4600    0.2080 cc        1 334     -0.226200
     16 CV'         3.0240    3.8780    0.0560 c3        1 334     -0.024900
     17 C4'         3.6410    1.4840    0.4140 cc        1 334     -0.015000
     18 C5'         3.3360    0.1610    0.5610 cd        1 334     -0.187500
     19 C6'         1.9560   -0.3200    0.5150 c         1 334      0.600500
     20 O6'         1.6790   -1.5410    0.6520 o         1 334     -0.694100
     21 BR5'        4.7450   -1.0550    0.8300 br        1 334     -0.109700
     22 HC2        -5.3710   -2.3410    0.1670 ha        1 334      0.119000
     23 HC3        -3.0110   -2.9960    0.4640 ha        1 334      0.152000
     24 HC6        -4.2550    1.8700   -0.2430 ha        1 334      0.140000
     25 HH11       -7.0190   -1.2000    1.1450 hn        1 334      0.312450
     26 HH12       -8.2880   -0.3470    0.3810 hn        1 334      0.312450
     27 HH21       -7.6290    1.4700   -1.2110 hn        1 334      0.312450
     28 HH22       -5.9710    1.5740   -1.6200 hn        1 334      0.312450
     29 HN3        -0.3240   -1.7600    0.5290 hn        1 334      0.359700
     30 HC2'        0.5310    2.8160   -0.0040 ha        1 334      0.130000
     31 H32'        3.7070    4.0030   -0.8220 hc        1 334      0.026033
     32 H33'        2.1310    4.5310   -0.1000 hc        1 334      0.026033
     33 H34'        3.5650    4.2340    0.9680 hc        1 334      0.026033
     34 HC4'        4.6870    1.8330    0.4510 ha        1 334      0.125000
@<TRIPOS>BOND
     1    1    2 ar  
     2    1    6 ar  
     3    1    7 1   
     4    2    3 ar  
     5    2   22 1   
     6    3    4 ar  
     7    3   23 1   
     8    4    5 ar  
     9    4   10 2   
    10    5    6 ar  
    11    5   11 2   
    12    6   24 1   
    13    7    8 2   
    14    7    9 1   
    15    8   25 1   
    16    8   26 1   
    17    9   27 1   
    18    9   28 1   
    19   10   12 1   
    20   10   29 1   
    21   11   12 1   
    22   12   13 2   
    23   13   14 1   
    24   13   19 1   
    25   14   15 2   
    26   14   30 1   
    27   15   16 1   
    28   15   17 1   
    29   16   31 1   
    30   16   32 1   
    31   16   33 1   
    32   17   18 2   
    33   17   34 1   
    34   18   19 1   
    35   18   21 1   
    36   19   20 2   
@<TRIPOS>SUBSTRUCTURE
     1 334         1 TEMP              0 ****  ****    0 ROOT
