@<TRIPOS>MOLECULE
335
   65    67     1     0     0
SMALL
bcc


@<TRIPOS>ATOM
      1 C32         0.2950    0.5360   -0.5910 c3        1 335     -0.098500
      2 C33         1.6960    0.2150   -0.2260 ca        1 335     -0.193000
      3 C4A         2.0750   -0.0060    1.1070 ca        1 335     -0.109500
      4 C4B         2.6500   -0.0340   -1.2280 ca        1 335     -0.109500
      5 C5A         3.3530   -0.4370    1.4290 ca        1 335     -0.178000
      6 C5B         3.9290   -0.4630   -0.9150 ca        1 335     -0.178000
      7 C36         4.3210   -0.6730    0.4270 ca        1 335      0.048000
      8 C37         5.6250   -1.2470    0.7420 c2        1 335     -0.256500
      9 F38         6.1340   -1.0050    1.9920 f         1 335     -0.198000
     10 F39         6.6630   -0.9360   -0.0990 f         1 335     -0.198000
     11 P40         6.5180   -3.3650    0.8860 p3        1 335      2.508000
     12 O41         6.2920   -3.8410   -0.5050 o         1 335     -1.191000
     13 O42         5.6650   -3.9500    1.9550 o         1 335     -1.191000
     14 O43         7.9110   -2.9990    1.2560 o         1 335     -1.191000
     15 C1         -0.2240    2.0210   -0.5470 c3        1 335      0.152000
     16 C12        -1.7610    1.8710   -0.8050 c3        1 335     -0.098500
     17 C13        -2.6840    3.0320   -0.9010 ca        1 335     -0.193000
     18 C1A        -3.4740    3.1690   -2.0590 ca        1 335     -0.109500
     19 C1B        -2.9330    3.9130    0.1590 ca        1 335     -0.109500
     20 C2A        -4.4280    4.1660   -2.1730 ca        1 335     -0.178000
     21 C2B        -3.8920    4.9150    0.0520 ca        1 335     -0.178000
     22 C16        -4.6530    5.0810   -1.1220 ca        1 335      0.048000
     23 C17        -5.7390    6.0690   -1.2210 c2        1 335     -0.256500
     24 F18        -5.6430    7.1630   -0.3990 f         1 335     -0.198000
     25 F19        -5.9290    6.6190   -2.4660 f         1 335     -0.198000
     26 P20        -7.9810    6.0400   -0.9290 p3        1 335      2.508000
     27 O21        -8.3670    5.0210   -1.9460 o         1 335     -1.191000
     28 O22        -8.0840    5.6430    0.5020 o         1 335     -1.191000
     29 O23        -8.2790    7.4610   -1.2570 o         1 335     -1.191000
     30 C51         0.5030    2.7890   -1.6390 ca        1 335     -0.063000
     31 C6A        -0.1600    3.3400   -2.7390 ca        1 335     -0.090000
     32 C6B         1.8990    2.9310   -1.5580 ca        1 335     -0.090000
     33 C55         1.9350    4.1370   -3.6530 ca        1 335     -0.144000
     34 C53         0.5520    4.0050   -3.7390 ca        1 335     -0.153500
     35 C54         2.6060    3.5990   -2.5560 ca        1 335     -0.153500
     36 N61         0.0190    2.6390    0.7760 na        1 335     -0.144000
     37 N62         0.6160    3.8420    0.9700 n2        1 335      0.066000
     38 N63         0.6230    4.1940    2.1850 n2        1 335     -0.117000
     39 C7A        -0.0320    3.1970    2.9580 ca        1 335     -0.131000
     40 C7B        -0.4400    2.1630    2.0210 ca        1 335     -0.003000
     41 C8A        -0.3070    3.0720    4.3230 ca        1 335     -0.060000
     42 C8B        -1.1150    1.0220    2.4800 ca        1 335     -0.101000
     43 C9A        -0.9790    1.9360    4.7450 ca        1 335     -0.170000
     44 C9B        -1.3720    0.9330    3.8380 ca        1 335     -0.117000
     45 H321        0.1160    0.2060   -1.6510 hc        1 335      0.075250
     46 H322       -0.3820   -0.0740    0.0670 hc        1 335      0.075250
     47 H4A         1.3390    0.1670    1.9070 ha        1 335      0.094750
     48 H4B         2.3710    0.1190   -2.2810 ha        1 335      0.094750
     49 H5A         3.6340   -0.6180    2.4770 ha        1 335      0.133750
     50 H5B         4.6620   -0.6680   -1.7080 ha        1 335      0.133750
     51 H121       -1.8310    1.2830   -1.7630 hc        1 335      0.075250
     52 H122       -2.1590    1.2070    0.0150 hc        1 335      0.075250
     53 H1A        -3.3390    2.4610   -2.8910 ha        1 335      0.094750
     54 H1B        -2.3720    3.8140    1.0980 ha        1 335      0.094750
     55 H2A        -5.0480    4.2530   -3.0780 ha        1 335      0.133750
     56 H2B        -4.0800    5.5950    0.8960 ha        1 335      0.133750
     57 H6A        -1.2560    3.2790   -2.8270 ha        1 335      0.167500
     58 H6B         2.4490    2.4940   -0.7060 ha        1 335      0.167500
     59 H55         2.4920    4.6640   -4.4390 ha        1 335      0.100000
     60 H53         0.0070    4.4360   -4.5910 ha        1 335      0.118000
     61 H54         3.6980    3.6920   -2.4740 ha        1 335      0.118000
     62 H8A         0.0020    3.8540    5.0280 ha        1 335      0.128000
     63 H8B        -1.4270    0.2240    1.7930 ha        1 335      0.147000
     64 H9A        -1.2130    1.8080    5.8110 ha        1 335      0.110000
     65 H9B        -1.9020    0.0500    4.2240 ha        1 335      0.118000
@<TRIPOS>BOND
     1    1    2 1   
     2    1   15 1   
     3    1   45 1   
     4    1   46 1   
     5    2    3 1   
     6    2    4 1   
     7    3    5 1   
     8    3   47 1   
     9    4    6 1   
    10    4   48 1   
    11    5    7 1   
    12    5   49 1   
    13    6    7 1   
    14    6   50 1   
    15    7    8 1   
    16    8    9 1   
    17    8   10 1   
    18   11   12 1   
    19   11   13 1   
    20   11   14 1   
    21   15   16 1   
    22   15   30 1   
    23   15   36 1   
    24   16   17 1   
    25   16   51 1   
    26   16   52 1   
    27   17   18 1   
    28   17   19 1   
    29   18   20 1   
    30   18   53 1   
    31   19   21 1   
    32   19   54 1   
    33   20   22 1   
    34   20   55 1   
    35   21   22 1   
    36   21   56 1   
    37   22   23 1   
    38   23   24 1   
    39   23   25 1   
    40   26   27 1   
    41   26   28 1   
    42   26   29 1   
    43   30   31 1   
    44   30   32 1   
    45   31   34 1   
    46   31   57 1   
    47   32   35 1   
    48   32   58 1   
    49   33   34 1   
    50   33   35 1   
    51   33   59 1   
    52   34   60 1   
    53   35   61 1   
    54   36   37 1   
    55   36   40 1   
    56   37   38 1   
    57   38   39 1   
    58   39   40 1   
    59   39   41 1   
    60   40   42 1   
    61   41   43 1   
    62   41   62 1   
    63   42   44 1   
    64   42   63 1   
    65   43   44 1   
    66   43   64 1   
    67   44   65 1   
@<TRIPOS>SUBSTRUCTURE
     1 335         1 TEMP              0 ****  ****    0 ROOT
