@<TRIPOS>MOLECULE
335
   65    67     1     0     0
SMALL
bcc


@<TRIPOS>ATOM
      1 C32         0.1240    0.5400   -0.6000 c3        1 335     -0.083000
      2 C33         1.5070    0.1480   -0.2720 ca        1 335     -0.251000
      3 C4A         1.9300   -0.0540    1.0580 ca        1 335     -0.082250
      4 C4B         2.4080   -0.2190   -1.2940 ca        1 335     -0.082250
      5 C5A         3.1500   -0.6080    1.3600 ca        1 335     -0.219250
      6 C5B         3.6330   -0.7760   -1.0260 ca        1 335     -0.219250
      7 C36         4.0540   -1.0270    0.3250 ca        1 335      0.053000
      8 C37         5.2470   -1.6460    0.6010 c2        1 335     -0.187500
      9 F38         5.7960   -1.9770    1.7980 f         1 335     -0.178250
     10 F39         6.1890   -2.1100   -0.2610 f         1 335     -0.178250
     11 P40         8.0610   -3.2440    1.2030 p3        1 335      2.467500
     12 O41         8.5840   -3.3730   -0.1740 o         1 335     -1.170667
     13 O42         7.3750   -4.4060    1.8060 o         1 335     -1.170667
     14 O43         8.6280   -2.1910    2.0720 o         1 335     -1.170667
     15 C1         -0.3290    2.0510   -0.5710 c3        1 335      0.142000
     16 C12        -1.8700    1.9650   -0.8330 c3        1 335     -0.083000
     17 C13        -2.7590    3.1550   -0.9040 ca        1 335     -0.251000
     18 C1A        -3.5390    3.3420   -2.0620 ca        1 335     -0.082250
     19 C1B        -2.9940    4.0110    0.1780 ca        1 335     -0.082250
     20 C2A        -4.4750    4.3590   -2.1500 ca        1 335     -0.219250
     21 C2B        -3.9360    5.0320    0.0980 ca        1 335     -0.219250
     22 C16        -4.6900    5.2420   -1.0710 ca        1 335      0.053000
     23 C17        -5.7660    6.2530   -1.1470 c2        1 335     -0.187500
     24 F18        -5.6510    7.3120   -0.2810 f         1 335     -0.178250
     25 F19        -5.9080    6.8600   -2.3730 f         1 335     -0.178250
     26 P20        -7.9940    6.2300   -0.8960 p3        1 335      2.467500
     27 O21        -8.3750    5.2600   -1.9620 o         1 335     -1.170667
     28 O22        -8.1310    5.7720    0.5140 o         1 335     -1.170667
     29 O23        -8.2800    7.6670   -1.1660 o         1 335     -1.170667
     30 C51         0.4310    2.7810   -1.6650 ca        1 335     -0.060000
     31 C6A        -0.2070    3.3970   -2.7440 ca        1 335     -0.090000
     32 C6B         1.8350    2.8200   -1.6050 ca        1 335     -0.090000
     33 C55         1.9250    4.0510   -3.6840 ca        1 335     -0.147000
     34 C53         0.5340    4.0230   -3.7480 ca        1 335     -0.156000
     35 C54         2.5720    3.4480   -2.6070 ca        1 335     -0.156000
     36 N61        -0.0620    2.6720    0.7470 na        1 335     -0.135000
     37 N62         0.6070    3.8350    0.9320 n2        1 335      0.066000
     38 N63         0.6540    4.1850    2.1490 n2        1 335     -0.121000
     39 C7A        -0.0390    3.2230    2.9310 ca        1 335     -0.132000
     40 C7B        -0.5200    2.2150    1.9980 ca        1 335     -0.003000
     41 C8A        -0.2990    3.1100    4.3000 ca        1 335     -0.061000
     42 C8B        -1.2540    1.1150    2.4670 ca        1 335     -0.098000
     43 C9A        -1.0270    2.0130    4.7320 ca        1 335     -0.172000
     44 C9B        -1.4940    1.0380    3.8290 ca        1 335     -0.122000
     45 H321       -0.1050    0.2070   -1.6500 hc        1 335      0.068250
     46 H322       -0.5710   -0.0180    0.0860 hc        1 335      0.068250
     47 H4A         1.2490    0.2380    1.8740 ha        1 335      0.088750
     48 H4B         2.1080   -0.0530   -2.3420 ha        1 335      0.088750
     49 H5A         3.4640   -0.7520    2.4010 ha        1 335      0.120250
     50 H5B         4.3190   -1.0540   -1.8360 ha        1 335      0.120250
     51 H121       -1.9580    1.4000   -1.8040 hc        1 335      0.068250
     52 H122       -2.2920    1.2980   -0.0280 hc        1 335      0.068250
     53 H1A        -3.4110    2.6580   -2.9150 ha        1 335      0.088750
     54 H1B        -2.4360    3.8750    1.1160 ha        1 335      0.088750
     55 H2A        -5.0880    4.4860   -3.0550 ha        1 335      0.120250
     56 H2B        -4.1130    5.6900    0.9610 ha        1 335      0.120250
     57 H6A        -1.3060    3.4200   -2.8120 ha        1 335      0.171500
     58 H6B         2.3620    2.3280   -0.7670 ha        1 335      0.171500
     59 H55         2.5060    4.5460   -4.4730 ha        1 335      0.098000
     60 H53         0.0090    4.5060   -4.5840 ha        1 335      0.116500
     61 H54         3.6700    3.4600   -2.5420 ha        1 335      0.116500
     62 H8A         0.0660    3.8710    5.0010 ha        1 335      0.127000
     63 H8B        -1.6250    0.3410    1.7830 ha        1 335      0.147000
     64 H9A        -1.2510    1.8960    5.8010 ha        1 335      0.108000
     65 H9B        -2.0690    0.1870    4.2220 ha        1 335      0.114000
@<TRIPOS>BOND
     1    1    2 1   
     2    1   15 1   
     3    1   45 1   
     4    1   46 1   
     5    2    3 1   
     6    2    4 1   
     7    3    5 1   
     8    3   47 1   
     9    4    6 1   
    10    4   48 1   
    11    5    7 1   
    12    5   49 1   
    13    6    7 1   
    14    6   50 1   
    15    7    8 1   
    16    8    9 1   
    17    8   10 1   
    18   11   12 1   
    19   11   13 1   
    20   11   14 1   
    21   15   16 1   
    22   15   30 1   
    23   15   36 1   
    24   16   17 1   
    25   16   51 1   
    26   16   52 1   
    27   17   18 1   
    28   17   19 1   
    29   18   20 1   
    30   18   53 1   
    31   19   21 1   
    32   19   54 1   
    33   20   22 1   
    34   20   55 1   
    35   21   22 1   
    36   21   56 1   
    37   22   23 1   
    38   23   24 1   
    39   23   25 1   
    40   26   27 1   
    41   26   28 1   
    42   26   29 1   
    43   30   31 1   
    44   30   32 1   
    45   31   34 1   
    46   31   57 1   
    47   32   35 1   
    48   32   58 1   
    49   33   34 1   
    50   33   35 1   
    51   33   59 1   
    52   34   60 1   
    53   35   61 1   
    54   36   37 1   
    55   36   40 1   
    56   37   38 1   
    57   38   39 1   
    58   39   40 1   
    59   39   41 1   
    60   40   42 1   
    61   41   43 1   
    62   41   62 1   
    63   42   44 1   
    64   42   63 1   
    65   43   44 1   
    66   43   64 1   
    67   44   65 1   
@<TRIPOS>SUBSTRUCTURE
     1 335         1 TEMP              0 ****  ****    0 ROOT
