@<TRIPOS>MOLECULE
335
   65    67     1     0     0
SMALL
bcc


@<TRIPOS>ATOM
      1 C32         1.2660   -0.0650   -1.4800 c3        1 335     -0.098500
      2 C33         2.6190   -0.1130   -0.8760 ca        1 335     -0.193000
      3 C4A         3.1490   -1.3040   -0.3550 ca        1 335     -0.109500
      4 C4B         3.4700    1.0030   -0.9530 ca        1 335     -0.109500
      5 C5A         4.4610   -1.3750    0.0860 ca        1 335     -0.178000
      6 C5B         4.7820    0.9410   -0.5120 ca        1 335     -0.178000
      7 C36         5.3160   -0.2520    0.0260 ca        1 335      0.048000
      8 C37         6.7320   -0.3490    0.3670 c2        1 335     -0.256500
      9 F38         7.0960   -1.3040    1.2810 f         1 335     -0.198000
     10 F39         7.3420    0.7910    0.8260 f         1 335     -0.198000
     11 P40         8.6860   -0.8110   -0.7610 p3        1 335      2.508000
     12 O41         8.6780    0.2880   -1.7630 o         1 335     -1.191000
     13 O42         8.4010   -2.1850   -1.2520 o         1 335     -1.191000
     14 O43         9.6380   -0.6820    0.3750 o         1 335     -1.191000
     15 C1         -0.0060    0.1540   -0.5820 c3        1 335      0.152000
     16 C12        -1.1920   -0.0590   -1.5820 c3        1 335     -0.098500
     17 C13        -2.6180    0.0940   -1.1910 ca        1 335     -0.193000
     18 C1A        -3.4230    0.9900   -1.9220 ca        1 335     -0.109500
     19 C1B        -3.2540   -0.7170   -0.2420 ca        1 335     -0.109500
     20 C2A        -4.7810    1.1080   -1.6820 ca        1 335     -0.178000
     21 C2B        -4.6180   -0.6060    0.0020 ca        1 335     -0.178000
     22 C16        -5.4160    0.3210   -0.6980 ca        1 335      0.048000
     23 C17        -6.8760    0.3870   -0.5270 c2        1 335     -0.256500
     24 F18        -7.3680   -0.0540    0.6760 f         1 335     -0.198000
     25 F19        -7.4340    1.6350   -0.6620 f         1 335     -0.198000
     26 P20        -8.6690   -0.4920   -1.5890 p3        1 335      2.508000
     27 O21        -8.4700    0.0720   -2.9540 o         1 335     -1.191000
     28 O22        -8.4250   -1.9500   -1.4160 o         1 335     -1.191000
     29 O23        -9.7510    0.1130   -0.7640 o         1 335     -1.191000
     30 C51         0.0700    1.5650   -0.0210 ca        1 335     -0.063000
     31 C6A        -0.8640    2.5540   -0.3450 ca        1 335     -0.090000
     32 C6B         1.1330    1.9030    0.8340 ca        1 335     -0.090000
     33 C55         0.3240    4.1740    1.0040 ca        1 335     -0.144000
     34 C53        -0.7350    3.8480    0.1610 ca        1 335     -0.153500
     35 C54         1.2570    3.1950    1.3400 ca        1 335     -0.153500
     36 N61        -0.0710   -0.8390    0.5140 na        1 335     -0.144000
     37 N62        -0.2600   -0.5350    1.8230 n2        1 335      0.066000
     38 N63        -0.3720   -1.5640    2.5520 n2        1 335     -0.117000
     39 C7A        -0.2800   -2.7220    1.7330 ca        1 335     -0.131000
     40 C7B        -0.0850   -2.2410    0.3740 ca        1 335     -0.003000
     41 C8A        -0.3370   -4.0920    2.0040 ca        1 335     -0.060000
     42 C8B         0.0520   -3.1530   -0.6820 ca        1 335     -0.101000
     43 C9A        -0.2040   -4.9680    0.9390 ca        1 335     -0.170000
     44 C9B        -0.0130   -4.5030   -0.3770 ca        1 335     -0.117000
     45 H321        1.2360    0.7800   -2.2230 hc        1 335      0.075250
     46 H322        1.1100   -1.0190   -2.0550 hc        1 335      0.075250
     47 H4A         2.5050   -2.1960   -0.3000 ha        1 335      0.094750
     48 H4B         3.0820    1.9440   -1.3700 ha        1 335      0.094750
     49 H5A         4.8670   -2.3180    0.4800 ha        1 335      0.133750
     50 H5B         5.4430    1.8160   -0.5920 ha        1 335      0.133750
     51 H121       -0.9790    0.6510   -2.4300 hc        1 335      0.075250
     52 H122       -1.0780   -1.1030   -1.9930 hc        1 335      0.075250
     53 H1A        -2.9640    1.6060   -2.7110 ha        1 335      0.094750
     54 H1B        -2.6730   -1.4620    0.3190 ha        1 335      0.094750
     55 H2A        -5.4000    1.8030   -2.2690 ha        1 335      0.133750
     56 H2B        -5.1020   -1.2550    0.7460 ha        1 335      0.133750
     57 H6A        -1.7300    2.3250   -0.9860 ha        1 335      0.167500
     58 H6B         1.8920    1.1450    1.0950 ha        1 335      0.167500
     59 H55         0.4210    5.1920    1.4040 ha        1 335      0.100000
     60 H53        -1.4860    4.6060   -0.1020 ha        1 335      0.118000
     61 H54         2.1010    3.4370    2.0020 ha        1 335      0.118000
     62 H8A        -0.4850   -4.4510    3.0300 ha        1 335      0.128000
     63 H8B         0.2070   -2.8150   -1.7160 ha        1 335      0.147000
     64 H9A        -0.2470   -6.0510    1.1170 ha        1 335      0.110000
     65 H9B         0.0890   -5.2390   -1.1880 ha        1 335      0.118000
@<TRIPOS>BOND
     1    1    2 1   
     2    1   15 1   
     3    1   45 1   
     4    1   46 1   
     5    2    3 1   
     6    2    4 1   
     7    3    5 1   
     8    3   47 1   
     9    4    6 1   
    10    4   48 1   
    11    5    7 1   
    12    5   49 1   
    13    6    7 1   
    14    6   50 1   
    15    7    8 1   
    16    8    9 1   
    17    8   10 1   
    18   11   12 1   
    19   11   13 1   
    20   11   14 1   
    21   15   16 1   
    22   15   30 1   
    23   15   36 1   
    24   16   17 1   
    25   16   51 1   
    26   16   52 1   
    27   17   18 1   
    28   17   19 1   
    29   18   20 1   
    30   18   53 1   
    31   19   21 1   
    32   19   54 1   
    33   20   22 1   
    34   20   55 1   
    35   21   22 1   
    36   21   56 1   
    37   22   23 1   
    38   23   24 1   
    39   23   25 1   
    40   26   27 1   
    41   26   28 1   
    42   26   29 1   
    43   30   31 1   
    44   30   32 1   
    45   31   34 1   
    46   31   57 1   
    47   32   35 1   
    48   32   58 1   
    49   33   34 1   
    50   33   35 1   
    51   33   59 1   
    52   34   60 1   
    53   35   61 1   
    54   36   37 1   
    55   36   40 1   
    56   37   38 1   
    57   38   39 1   
    58   39   40 1   
    59   39   41 1   
    60   40   42 1   
    61   41   43 1   
    62   41   62 1   
    63   42   44 1   
    64   42   63 1   
    65   43   44 1   
    66   43   64 1   
    67   44   65 1   
@<TRIPOS>SUBSTRUCTURE
     1 335         1 TEMP              0 ****  ****    0 ROOT
