@<TRIPOS>MOLECULE
335
   65    60     1     0     0
SMALL
bcc


@<TRIPOS>ATOM
      1 C32        -0.0960   -1.1390   -0.3820 c3        1 335     -0.075500
      2 C33         1.4480   -1.0220   -0.3620 c2        1 335     -0.251500
      3 C4A         2.2010   -1.6450   -1.3560 c2        1 335     -0.083000
      4 C4B         2.0580   -0.1360    0.5170 c1        1 335     -0.078000
      5 C5A         3.5780   -1.3760   -1.4680 c1        1 335     -0.217000
      6 C5B         3.4210    0.1310    0.4080 c1        1 335     -0.224000
      7 C36         4.1810   -0.4920   -0.5890 c1        1 335      0.053000
      8 C37         5.7040   -0.1600   -0.7330 c3        1 335     -0.189500
      9 F38         6.2570   -0.0720    0.4820 f         1 335     -0.180750
     10 F39         6.3170   -1.1440   -1.4400 f         1 335     -0.180750
     11 P40         5.9050    1.4730   -1.6280 p5        1 335      1.511000
     12 O41         4.8510    2.4380   -1.1530 o         1 335     -0.852500
     13 O42         7.2800    2.0450   -1.3410 o         1 335     -0.852500
     14 O43         5.7570    1.2570   -3.0850 o         1 335     -0.852500
     15 C1         -0.6730   -0.7550    1.0240 c3        1 335      0.142000
     16 C12        -2.2400   -1.0160    1.0340 c3        1 335     -0.075500
     17 C13        -2.8360   -0.7260   -0.4170 c2        1 335     -0.251500
     18 C1A        -3.2730    0.5570   -0.7430 c2        1 335     -0.083000
     19 C1B        -3.0700   -1.7980   -1.3120 c1        1 335     -0.078000
     20 C2A        -3.9510    0.7860   -1.9670 c1        1 335     -0.217000
     21 C2B        -3.7370   -1.5700   -2.5160 c1        1 335     -0.224000
     22 C16        -4.1800   -0.2670   -2.8430 c1        1 335      0.053000
     23 C17        -4.8560    0.0030   -4.2320 c3        1 335     -0.189500
     24 F18        -5.8640    0.8600   -4.0790 f         1 335     -0.180750
     25 F19        -5.3230   -1.1490   -4.7330 f         1 335     -0.180750
     26 P20        -3.6670    0.6880   -5.3490 p5        1 335      1.511000
     27 O21        -3.4200    2.1300   -4.9980 o         1 335     -0.852500
     28 O22        -2.3860   -0.0770   -5.2440 o         1 335     -0.852500
     29 O23        -4.1910    0.5980   -6.7490 o         1 335     -0.852500
     30 C51        -0.0100   -1.6070    2.0930 c2        1 335     -0.072000
     31 C6A         0.1710   -2.9500    1.8800 c2        1 335     -0.127000
     32 C6B         0.4320   -1.0260    3.2700 c1        1 335     -0.079000
     33 C55         1.2340   -3.1520    4.0110 c1        1 335     -0.145250
     34 C53         0.7930   -3.7260    2.8380 c1        1 335     -0.161000
     35 C54         1.0530   -1.7990    4.2270 c1        1 335     -0.145250
     36 N61        -0.4080    0.6710    1.2970 n3        1 335     -0.133000
     37 N62         0.3380    0.7830    0.1790 n2        1 335      0.085000
     38 N63         0.7390    2.0990    0.0620 n2        1 335     -0.119000
     39 C7A         0.2330    2.7880    1.1160 c1        1 335     -0.127000
     40 C7B        -0.4800    1.9160    1.8890 c1        1 335     -0.012000
     41 C8A         0.3310    4.1580    1.4930 c1        1 335     -0.061000
     42 C8B        -1.1260    2.3790    3.0760 c1        1 335     -0.100000
     43 C9A        -0.3040    4.6150    2.6590 c1        1 335     -0.145250
     44 C9B        -1.0280    3.7310    3.4460 c1        1 335     -0.145250
     45 H321       -0.3500   -2.0590   -0.5970 hc        1 335      0.079750
     46 H322       -0.4520   -0.5480   -1.0450 hc        1 335      0.079750
     47 H4A         1.7860   -2.2480   -1.9570 ha        1 335      0.084500
     48 H4B         1.5510    0.2840    1.1870 ha        1 335      0.098000
     49 H5A         4.1300   -1.9070   -2.0790 ha        1 335      0.121000
     50 H5B         3.8370    0.7390    1.0120 ha        1 335      0.119500
     51 H121       -2.6660   -0.4220    1.6880 hc        1 335      0.079750
     52 H122       -2.4170   -1.9660    1.2810 hc        1 335      0.079750
     53 H1A        -3.1150    1.2860   -0.1370 ha        1 335      0.084500
     54 H1B        -2.7530   -2.7350   -1.0780 ha        1 335      0.098000
     55 H2A        -4.2600    1.6930   -2.1980 ha        1 335      0.121000
     56 H2B        -3.9810   -2.3430   -3.1070 ha        1 335      0.119500
     57 H6A        -0.1430   -3.3600    1.0450 ha        1 335      0.132000
     58 H6B         0.1900   -0.1010    3.4750 ha        1 335      0.166000
     59 H55         1.7010   -3.7070    4.6920 ha        1 335      0.113000
     60 H53         0.9210   -4.6820    2.6850 ha        1 335      0.103000
     61 H54         1.3740   -1.3810    5.0800 ha        1 335      0.113000
     62 H8A         0.8380    4.7770    0.9430 ha        1 335      0.127000
     63 H8B        -1.6480    1.7400    3.6440 ha        1 335      0.148000
     64 H9A        -0.2330    5.5840    2.9230 ha        1 335      0.113000
     65 H9B        -1.4720    4.0500    4.2610 ha        1 335      0.113000
@<TRIPOS>BOND
     1    1    2 1   
     2    1   15 1   
     3    1   45 1   
     4    1   46 1   
     5    2    3 1   
     6    2    4 1   
     7    3    5 1   
     8    3   47 1   
     9    4   48 1   
    10    5   49 1   
    11    6    7 1   
    12    6   50 1   
    13    7    8 1   
    14    8    9 1   
    15    8   10 1   
    16    8   11 1   
    17   11   12 1   
    18   11   13 1   
    19   11   14 1   
    20   15   16 1   
    21   15   30 1   
    22   15   36 1   
    23   16   17 1   
    24   16   51 1   
    25   16   52 1   
    26   17   18 1   
    27   17   19 1   
    28   18   20 1   
    29   18   53 1   
    30   19   54 1   
    31   20   55 1   
    32   21   22 1   
    33   21   56 1   
    34   22   23 1   
    35   23   24 1   
    36   23   25 1   
    37   23   26 1   
    38   26   27 1   
    39   26   28 1   
    40   26   29 1   
    41   30   31 1   
    42   30   32 1   
    43   31   34 1   
    44   31   57 1   
    45   32   58 1   
    46   33   35 1   
    47   33   59 1   
    48   34   60 1   
    49   35   61 1   
    50   36   37 1   
    51   36   40 1   
    52   37   38 1   
    53   38   39 1   
    54   39   41 1   
    55   40   42 1   
    56   41   62 1   
    57   42   63 1   
    58   43   44 1   
    59   43   64 1   
    60   44   65 1   
@<TRIPOS>SUBSTRUCTURE
     1 335         1 TEMP              0 ****  ****    0 ROOT
