@<TRIPOS>MOLECULE
336
   67    67     1     0     0
SMALL
bcc


@<TRIPOS>ATOM
      1 C1         -1.7420   -0.7270   -1.0170 c3        1 336     -0.033500
      2 C4         -1.6290    0.5310    1.1560 c3        1 336     -0.087000
      3 C6         -0.1890    0.1270    1.2930 c3        1 336     -0.184000
      4 C9          0.1210   -1.1650    0.5410 c3        1 336     -0.033500
      5 N12        -0.3320   -1.1200   -0.8560 n         1 336     -0.321000
      6 C13        -2.0690    0.5680   -0.2800 c3        1 336     -0.184000
      7 CL16       -3.2670   -0.1620    6.9520 cl        1 336     -0.002000
      8 C17        -4.6710    2.5270   -0.4610 c1        1 336     -0.077000
      9 C19        -2.7390    0.0370    5.3010 c2        1 336     -0.060000
     10 C20        -3.5900   -0.0830    4.2030 c2        1 336     -0.113000
     11 C22        -4.8580    1.4050    2.8520 c3        1 336     -0.126000
     12 C25        -4.7640    2.6150    1.9620 c3        1 336     -0.115000
     13 C28        -1.6330    1.9150    4.2440 c1        1 336     -0.152000
     14 C29        -4.1100    3.2340   -1.4940 c1        1 336     -0.225000
     15 C30        -2.8090    3.7300   -1.3760 c1        1 336     -0.036000
     16 N32        -2.0910    3.5100   -0.2280 n1        1 336     -0.145000
     17 C33        -1.8130    1.9270    1.7700 c3        1 336     -0.036000
     18 C35        -1.7580    1.0380    5.3220 c1        1 336     -0.105000
     19 BR37       -5.0980    4.0550   -2.9130 br        1 336      0.078000
     20 BR38        0.1890    1.6470    4.7700 br        1 336      0.065000
     21 C39        -2.6550    2.7960    0.8170 c1        1 336      0.023000
     22 C40        -2.4930    1.7950    3.1320 c2        1 336     -0.031000
     23 C41        -3.9430    2.3040    0.7030 c1        1 336     -0.104000
     24 C42        -3.4630    0.8040    3.1110 c2        1 336     -0.054000
     25 C43         3.3740   -1.8940   -3.8240 c3        1 336     -0.186000
     26 C46         4.2880   -3.0370   -3.4040 c3        1 336     -0.050500
     27 C49         2.9630   -1.0420   -2.6640 c3        1 336     -0.097000
     28 C51         4.1330   -0.5850   -1.8650 c3        1 336     -0.186000
     29 N54         5.4200   -2.5770   -2.6060 n         1 336     -0.279000
     30 C55         6.7830   -2.9130   -2.9140 c2        1 336      0.351000
     31 N56         7.8340   -2.4590   -2.0750 n         1 336     -0.400000
     32 O57         7.0330   -3.6110   -3.8770 o         1 336     -0.396000
     33 C58         5.0430   -1.7410   -1.4620 c3        1 336     -0.050500
     34 C61         2.0020   -1.8740   -1.7340 c3        1 336     -0.174000
     35 O64         0.1000   -1.3810   -3.1230 o         1 336     -0.366000
     36 C65         0.5350   -1.4370   -1.9830 c2        1 336      0.299000
     37 H11        -1.9320   -0.6050   -1.9740 h1        1 336      0.096750
     38 H12        -2.3160   -1.4470   -0.6660 h1        1 336      0.096750
     39 H4         -2.1890   -0.1120    1.6460 hc        1 336      0.093000
     40 H61         0.0160   -0.0020    2.2450 hc        1 336      0.098250
     41 H62         0.3790    0.8470    0.9380 hc        1 336      0.098250
     42 H91         1.0910   -1.3160    0.5560 h1        1 336      0.096750
     43 H92        -0.3250   -1.9150    0.9980 h1        1 336      0.096750
     44 H131       -3.0390    0.7150   -0.3120 hc        1 336      0.098250
     45 H132       -1.6180    1.3130   -0.7320 hc        1 336      0.098250
     46 H17        -5.5850    2.1780   -0.5440 ha        1 336      0.151000
     47 H20        -4.3080   -0.7500    4.2110 ha        1 336      0.152000
     48 H221       -5.2630    1.6650    3.7110 hc        1 336      0.100500
     49 H222       -5.4260    0.7280    2.4190 hc        1 336      0.100500
     50 H251       -5.6710    2.8930    1.6980 hc        1 336      0.098000
     51 H252       -4.3320    3.3470    2.4570 hc        1 336      0.098000
     52 H30        -2.4080    4.2360   -2.1140 ha        1 336      0.175000
     53 H33        -0.9290    2.3450    1.8910 hc        1 336      0.142000
     54 H35        -1.1590    1.1190    6.0920 ha        1 336      0.163000
     55 H431        3.8470   -1.3310   -4.4820 hc        1 336      0.099000
     56 H432        2.5700   -2.2670   -4.2440 hc        1 336      0.099000
     57 H461        3.7690   -3.6820   -2.8780 h1        1 336      0.098000
     58 H462        4.6290   -3.4850   -4.2110 h1        1 336      0.098000
     59 H49         2.4790   -0.2540   -3.0010 hc        1 336      0.119000
     60 H511        4.6530    0.0590   -2.4000 hc        1 336      0.099000
     61 H512        3.8080   -0.1360   -1.0520 hc        1 336      0.099000
     62 H561        7.9460   -2.8250   -1.2460 hn        1 336      0.213000
     63 H562        8.4440   -1.8540   -2.3940 hn        1 336      0.213000
     64 H581        4.5760   -2.2980   -0.8000 h1        1 336      0.098000
     65 H582        5.8590   -1.3750   -1.0510 h1        1 336      0.098000
     66 H611        2.0970   -2.8320   -1.9370 hc        1 336      0.103500
     67 H612        2.2350   -1.7150   -0.7960 hc        1 336      0.103500
@<TRIPOS>BOND
     1    1    5 1   
     2    1    6 1   
     3    1   37 1   
     4    1   38 1   
     5    2    3 1   
     6    2    6 1   
     7    2   17 1   
     8    2   39 1   
     9    3    4 1   
    10    3   40 1   
    11    3   41 1   
    12    4    5 1   
    13    4   42 1   
    14    4   43 1   
    15    5   36 1   
    16    6   44 1   
    17    6   45 1   
    18    7    9 1   
    19    8   14 1   
    20    8   46 1   
    21    9   10 1   
    22    9   18 1   
    23   10   24 1   
    24   10   47 1   
    25   11   12 1   
    26   11   24 1   
    27   11   48 1   
    28   11   49 1   
    29   12   23 1   
    30   12   50 1   
    31   12   51 1   
    32   13   20 1   
    33   13   22 1   
    34   14   19 1   
    35   15   16 1   
    36   15   52 1   
    37   17   21 1   
    38   17   22 1   
    39   17   53 1   
    40   18   54 1   
    41   21   23 1   
    42   22   24 1   
    43   25   26 1   
    44   25   27 1   
    45   25   55 1   
    46   25   56 1   
    47   26   29 1   
    48   26   57 1   
    49   26   58 1   
    50   27   28 1   
    51   27   34 1   
    52   27   59 1   
    53   28   33 1   
    54   28   60 1   
    55   28   61 1   
    56   29   30 1   
    57   29   33 1   
    58   30   31 1   
    59   30   32 1   
    60   31   62 1   
    61   31   63 1   
    62   33   64 1   
    63   33   65 1   
    64   34   36 1   
    65   34   66 1   
    66   34   67 1   
    67   35   36 1   
@<TRIPOS>SUBSTRUCTURE
     1 336         1 TEMP              0 ****  ****    0 ROOT
