@<TRIPOS>MOLECULE
336
   67    65     1     0     0
SMALL
bcc


@<TRIPOS>ATOM
      1 C1         -1.2240   -2.4320   -2.0750 c3        1 336     -0.101000
      2 C4          1.8010    1.5820    2.1300 c2        1 336     -0.156000
      3 C6          2.0580    0.4510    1.4760 c2        1 336     -0.184000
      4 C9         -0.5030   -0.6770   -0.5290 c1        1 336     -0.188000
      5 N12        -0.3900   -1.2910   -1.6790 n         1 336     -0.175000
      6 C13        -2.4330   -2.0600   -2.9140 c3        1 336     -0.227000
      7 C17        -0.2080    4.9380    0.3610 c2        1 336     -0.077000
      8 C19        -0.9680    1.7820    6.4600 c2        1 336     -0.150000
      9 C20        -1.7560    2.3480    5.5210 c2        1 336     -0.087000
     10 C22        -1.2580    4.1810    3.9860 c3        1 336     -0.125000
     11 C25        -0.9040    4.7340    2.6650 c2        1 336     -0.126000
     12 C28         0.8830    1.4980    4.8560 c3        1 336     -0.131000
     13 C29         0.1410    4.3810   -0.8170 c2        1 336     -0.220000
     14 C30         0.2200    2.9220   -0.9680 c1        1 336     -0.108000
     15 N32        -0.0420    2.1580    0.0580 n3        1 336     -0.191000
     16 C33         0.4700    2.0640    2.4930 c2        1 336     -0.028000
     17 C35         0.4320    1.5400    6.2390 c1        1 336     -0.016000
     18 BR38        0.8900   -0.4890    4.9590 br        1 336      0.026000
     19 C39        -0.4200    2.6160    1.3960 c3        1 336      0.016000
     20 C40         0.0430    2.0610    3.7760 c2        1 336     -0.142000
     21 C41        -0.5190    4.1200    1.5300 c2        1 336     -0.094000
     22 C42        -1.2810    2.6590    4.1410 c3        1 336     -0.050000
     23 C43         3.8150    2.9640   -0.7170 c3        1 336     -0.289000
     24 C46         5.9870    1.0320   -2.7100 c1        1 336     -0.076000
     25 C49         2.7720    0.2690   -3.1560 c3        1 336     -0.104000
     26 C51         3.5420   -0.9980   -3.1690 c2        1 336     -0.391000
     27 N54         6.8430    0.9040   -3.6750 n3        1 336     -0.247000
     28 C55         6.8060   -2.6410   -2.9750 c1        1 336      0.370000
     29 N56         6.4420   -3.4690   -2.1330 n2        1 336     -0.359000
     30 O57         7.4340   -2.0510   -3.8210 o         1 336     -0.280000
     31 C58         4.8030   -1.2110   -2.8610 c1        1 336     -0.061000
     32 C61         1.5670    0.2160   -2.2400 c3        1 336     -0.191000
     33 O64         0.5340   -1.3430   -3.7890 o         1 336     -0.307000
     34 C65         0.5790   -0.8370   -2.6620 c2        1 336      0.325000
     35 H11        -2.1150   -1.5860   -3.8740 hc        1 336      0.090667
     36 H12        -0.5840   -3.1540   -2.6590 h1        1 336      0.105000
     37 H4         -3.0050   -2.9910   -3.1470 hc        1 336      0.090667
     38 H61        -1.2680   -1.0730    0.1720 ha        1 336      0.063000
     39 H62         2.6190    2.2590    2.4410 ha        1 336      0.141000
     40 H91         3.0860    0.1540    1.2250 ha        1 336      0.126000
     41 H92         1.2750   -0.2490    1.1470 ha        1 336      0.126000
     42 H131       -1.5660   -2.9490   -1.1340 h1        1 336      0.105000
     43 H132       -3.1060   -1.3550   -2.3700 hc        1 336      0.090667
     44 H17        -0.2750    6.0310    0.4990 ha        1 336      0.142000
     45 H20        -2.0670    2.2380    3.4410 hc        1 336      0.119000
     46 H221       -0.9660    5.8420    2.6570 ha        1 336      0.130000
     47 H222       -2.7990    2.6430    5.7300 ha        1 336      0.146000
     48 H251       -0.5300    4.6030    4.7370 hc        1 336      0.105000
     49 H252       -2.2780    4.5730    4.2610 hc        1 336      0.105000
     50 H30         0.0190    1.1430   -0.0560 hn        1 336      0.302000
     51 H33        -1.4670    2.1990    1.5670 h1        1 336      0.109000
     52 H35         1.9570    1.7980    4.7400 h1        1 336      0.170000
     53 H432        4.0620    4.0350   -0.5530 hc        1 336      0.071250
     54 H461        2.8270    2.8840   -1.2260 hc        1 336      0.071250
     55 H462        4.6040    2.4930   -1.3490 hc        1 336      0.071250
     56 H49         3.4230    1.1240   -2.8160 hc        1 336      0.111500
     57 H511        2.9550   -1.8740   -3.5240 ha        1 336      0.188000
     58 H512        2.4320    0.4900   -4.2050 hc        1 336      0.111500
     59 H561        5.6180   -3.3970   -1.5950 hn        1 336      0.252000
     60 H562        5.5020    0.0320   -2.3480 ha        1 336      0.068000
     61 H581        7.1030    0.0480   -4.1320 hn        1 336      0.222500
     62 H582        7.3160    1.7160   -4.0120 hn        1 336      0.222500
     63 H611        1.8900    0.0440   -1.1770 hc        1 336      0.158500
     64 H612        1.0380    1.2200   -2.2650 hc        1 336      0.158500
     65 BR37        0.5420    5.3760   -2.3360 br        1 336      0.082000
     66 CL16       -1.5750    1.4070    8.0010 cl        1 336      0.013000
     67 H431        3.7630    2.4420    0.2650 hc        1 336      0.071250
@<TRIPOS>BOND
     1    1    5 1   
     2    1    6 1   
     3    1   36 1   
     4    1   42 1   
     5    2    3 1   
     6    2   16 1   
     7    2   39 1   
     8    3   40 1   
     9    3   41 1   
    10    4    5 1   
    11    4   38 1   
    12    5   34 1   
    13    6   35 1   
    14    6   37 1   
    15    6   43 1   
    16    7   13 1   
    17    7   21 1   
    18    7   44 1   
    19    8    9 1   
    20    8   17 1   
    21    8   66 1   
    22    9   22 1   
    23    9   47 1   
    24   10   11 1   
    25   10   22 1   
    26   10   48 1   
    27   10   49 1   
    28   11   21 1   
    29   11   46 1   
    30   12   17 1   
    31   12   18 1   
    32   12   20 1   
    33   12   52 1   
    34   13   14 1   
    35   13   65 1   
    36   14   15 1   
    37   15   19 1   
    38   15   50 1   
    39   16   19 1   
    40   16   20 1   
    41   19   21 1   
    42   19   51 1   
    43   20   22 1   
    44   22   45 1   
    45   23   53 1   
    46   23   54 1   
    47   23   55 1   
    48   23   67 1   
    49   24   27 1   
    50   24   60 1   
    51   25   26 1   
    52   25   32 1   
    53   25   56 1   
    54   25   58 1   
    55   26   31 1   
    56   26   57 1   
    57   27   61 1   
    58   27   62 1   
    59   28   29 1   
    60   28   30 1   
    61   29   59 1   
    62   32   34 1   
    63   32   63 1   
    64   32   64 1   
    65   33   34 1   
@<TRIPOS>SUBSTRUCTURE
     1 336         1 TEMP              0 ****  ****    0 ROOT
