@<TRIPOS>MOLECULE
336
   68    68     1     0     0
SMALL
bcc


@<TRIPOS>ATOM
      1 C1          1.0550   -4.0910   -2.3760 c1        1 336     -0.071000
      2 C4          1.1360    1.6870    4.5470 c2        1 336     -0.537000
      3 C6          2.4190    1.4000    4.5780 c1        1 336      0.250000
      4 C9          0.0300   -2.5230   -0.5130 cv        1 336     -0.030000
      5 N12         0.8020   -3.0290   -1.6700 na        1 336     -0.152000
      6 C13         0.4900   -5.4260   -2.1720 c3        1 336     -0.245000
      7 C17        -0.7630    3.5990    0.4400 c2        1 336     -0.021000
      8 C19        -3.2070    3.1730    6.5520 cu        1 336     -0.082000
      9 C20        -2.8310    3.7810    5.4370 cu        1 336     -0.158000
     10 C22        -2.0210    4.9450    3.3910 c3        1 336     -0.144000
     11 C25        -0.8110    5.0640    2.4820 c3        1 336     -0.123000
     12 C28        -0.6450    3.4970    6.2010 c2        1 336     -0.175000
     13 C29        -0.4710    2.3920   -0.1680 c2        1 336     -0.250000
     14 C30         0.1050    1.3300    0.5870 c1        1 336     -0.189000
     15 N32         0.3610    1.5360    1.8880 n7        1 336     -0.082000
     16 C33         0.4880    2.9140    3.9950 c3        1 336      0.069000
     17 C35        -1.9720    4.0120    6.6780 cx        1 336     -0.108000
     18 C39         0.0990    2.7310    2.5420 c2        1 336     -0.010000
     19 C40        -0.6540    3.3440    4.8450 c2        1 336     -0.120000
     20 C41        -0.4790    3.7770    1.8180 c2        1 336     -0.111000
     21 C42        -2.0270    3.6680    4.2130 c3        1 336      0.034000
     22 C43         2.6490    0.1000   -2.5760 c3        1 336     -0.306000
     23 C46         5.3540   -0.1580   -2.5790 c1        1 336     -0.185000
     24 C49         4.7470    3.2990   -5.5000 c3        1 336     -0.214000
     25 C51         4.7400    1.7920   -5.5100 c3        1 336     -0.198000
     26 N54         6.1330   -0.5240   -3.5190 n2        1 336     -0.262000
     27 C55         5.8860   -0.9520   -4.7910 c2        1 336      0.334000
     28 N56         5.6890   -2.2450   -5.1650 n8        1 336     -0.331000
     29 O57         6.1380   -0.1730   -5.8950 os        1 336     -0.216000
     30 C58         6.1380    1.2600   -5.7440 c3        1 336     -0.013000
     31 C61         0.5020   -1.2470   -0.6230 cv        1 336     -0.239000
     32 O64         2.1530   -1.2490   -2.6770 os        1 336     -0.014000
     33 C65         1.3040   -1.6790   -1.8100 cv        1 336      0.318000
     34 H11        -0.0370   -5.7140   -3.1200 hc        1 336      0.117667
     35 H12         1.3470   -6.1360   -2.0290 hc        1 336      0.117667
     36 H4          0.4410    0.9620    5.0320 ha        1 336      0.214000
     37 H61         0.1880   -1.4580    2.6980 ha        1 336      0.001000
     38 H62        -0.5850   -1.0000    4.7070 ha        1 336      0.001000
     39 H91        -0.8200   -1.0320    5.3420 ha        1 336      0.001000
     40 H92        -0.6440   -3.1100    0.1060 h4        1 336      0.217000
     41 H131       -0.2200   -5.5400   -1.3150 hc        1 336      0.117667
     42 H132        0.2210   -1.5050    2.0220 ha        1 336      0.001000
     43 H17        -1.2170    4.4360   -0.1180 ha        1 336      0.166000
     44 H20        -2.3650    2.8030    3.5800 hc        1 336      0.121000
     45 H221       -2.9620    4.9720    2.7790 hc        1 336      0.107500
     46 H222       -1.0150    5.8550    1.7100 hc        1 336      0.105500
     47 H251        0.0740    5.4120    3.0820 hc        1 336      0.105500
     48 H252       -2.0410    5.8360    4.0740 hc        1 336      0.107500
     49 H30         0.7610    0.7820    2.4170 hn        1 336      0.267000
     50 H33         1.2500    3.7580    4.0040 hc        1 336      0.138000
     51 H35        -1.9510    4.9020    7.3240 hc        1 336      0.161000
     52 H461        5.8560    0.1230   -1.6330 ha        1 336      0.130000
     53 H462        5.4080    3.6880   -4.6890 hc        1 336      0.086333
     54 H49         3.7130    3.6850   -5.3290 hc        1 336      0.086333
     55 H511        5.1140    3.7000   -6.4770 hc        1 336      0.086333
     56 H512        4.3430    1.4030   -4.5330 hc        1 336      0.095500
     57 H561        3.9290   -0.0640   -2.5860 h1        1 336      0.170000
     58 H562        5.8480   -2.5080   -6.1120 hn        1 336      0.262000
     59 H581        6.5380    1.5840   -6.7470 h1        1 336      0.124500
     60 H582        6.8490    1.5680   -4.9360 h1        1 336      0.124500
     61 H611        0.3760   -0.2310   -0.1280 ha        1 336      0.313000
     62 H612        4.0590    1.4170   -6.3190 hc        1 336      0.095500
     63 Br37       -0.8220    2.0890   -1.9700 br        1 336      0.087000
     64 Cl16       -4.2680    2.2800    7.3830 cl        1 336      0.141000
     65 H431        2.3050    0.6120   -1.6550 h1        1 336      0.170000
     66 H563        5.5680   -2.9550   -4.4820 hn        1 336      0.262000
     67 Br38        0.7500    3.2630    7.3820 br        1 336      0.110000
     68 H432        2.3100    0.6120   -3.5040 h1        1 336      0.170000
@<TRIPOS>BOND
     1    1    5 1   
     2    1    6 1   
     3    2    3 1   
     4    2   16 1   
     5    2   36 1   
     6    4    5 1   
     7    4   31 1   
     8    4   40 1   
     9    5   33 1   
    10    6   34 1   
    11    6   35 1   
    12    6   41 1   
    13    7   13 1   
    14    7   20 1   
    15    7   43 1   
    16    8    9 1   
    17    8   17 1   
    18    8   64 1   
    19    9   17 1   
    20    9   21 1   
    21   10   11 1   
    22   10   21 1   
    23   10   45 1   
    24   10   48 1   
    25   11   20 1   
    26   11   46 1   
    27   11   47 1   
    28   12   17 1   
    29   12   19 1   
    30   12   67 1   
    31   13   14 1   
    32   13   63 1   
    33   14   15 1   
    34   15   18 1   
    35   15   49 1   
    36   16   18 1   
    37   16   19 1   
    38   16   50 1   
    39   17   51 1   
    40   18   20 1   
    41   19   21 1   
    42   21   44 1   
    43   22   32 1   
    44   22   57 1   
    45   22   65 1   
    46   22   68 1   
    47   23   26 1   
    48   23   52 1   
    49   24   25 1   
    50   24   53 1   
    51   24   54 1   
    52   24   55 1   
    53   25   30 1   
    54   25   56 1   
    55   25   62 1   
    56   26   27 1   
    57   27   28 1   
    58   27   29 1   
    59   28   58 1   
    60   28   66 1   
    61   29   30 1   
    62   30   59 1   
    63   30   60 1   
    64   31   33 1   
    65   31   61 1   
    66   32   33 1   
    67   37   42 1   
    68   38   39 1   
@<TRIPOS>SUBSTRUCTURE
     1 336         1 TEMP              0 ****  ****    0 ROOT
