@<TRIPOS>MOLECULE
336
   67    71     1     0     0
SMALL
bcc


@<TRIPOS>ATOM
      1 C1          0.1540   -1.7950    0.8220 c3        1 336      0.084000
      2 C4         -0.2350   -0.1870   -1.0610 c3        1 336     -0.048700
      3 C6         -0.9870    0.7060   -0.0780 c3        1 336     -0.104900
      4 C9         -1.6080   -0.1350    1.0430 c3        1 336      0.084000
      5 N12        -0.6730   -1.0070    1.7140 n         1 336     -0.463800
      6 C13         0.8110   -0.9820   -0.2970 c3        1 336     -0.104900
      7 C17         3.7180   -0.7310   -3.4980 ca        1 336     -0.077000
      8 C19        -2.3160    0.4620   -5.6020 ca        1 336      0.018400
      9 C20        -1.5960   -0.6710   -5.2200 ca        1 336     -0.113000
     10 C22         0.0940   -1.8110   -3.8060 c3        1 336     -0.040100
     11 C25         1.5490   -1.6140   -4.1610 c3        1 336     -0.029100
     12 C28        -1.2580    1.7300   -3.8390 ca        1 336     -0.011900
     13 C29         4.5650    0.1430   -2.8290 ca        1 336     -0.151200
     14 C30         3.9660    1.1240   -2.0060 ca        1 336      0.429200
     15 N32         2.6470    1.2370   -1.8500 nb        1 336     -0.671000
     16 C33         0.3420    0.6560   -2.2130 c3        1 336     -0.083700
     17 C35        -2.1410    1.6670   -4.9210 ca        1 336     -0.105000
     18 BR38       -1.0930    3.4030   -2.9960 br        1 336     -0.074100
     19 C39         1.8070    0.3770   -2.5010 ca        1 336      0.445600
     20 C40        -0.5390    0.5940   -3.4250 ca        1 336     -0.038300
     21 C41         2.3170   -0.6320   -3.3490 ca        1 336     -0.176600
     22 C42        -0.7070   -0.6030   -4.1440 ca        1 336     -0.061300
     23 C43        -1.1940    1.1980    6.1620 c3        1 336     -0.108900
     24 C46        -0.8700    1.0560    7.6510 c3        1 336      0.067500
     25 C49        -0.6780   -0.0050    5.3860 c3        1 336     -0.059700
     26 C51        -1.1940   -1.2970    6.0030 c3        1 336     -0.108900
     27 N54        -1.3220   -0.1850    8.2540 n         1 336     -0.418800
     28 C55        -2.6480   -0.2590    8.7800 c         1 336      0.722100
     29 N56        -3.2210    0.8440    9.4260 n         1 336     -0.640000
     30 O57        -3.3130   -1.3230    8.7210 o         1 336     -0.636100
     31 C58        -0.8870   -1.3530    7.4980 c3        1 336      0.067500
     32 C61        -1.0880    0.1060    3.9250 c3        1 336     -0.143400
     33 O64         0.7100   -1.4430    3.4820 o         1 336     -0.609100
     34 C65        -0.2730   -0.8150    3.0360 c         1 336      0.657100
     35 H11        -0.5100   -2.5810    0.3580 h1        1 336      0.057950
     36 H12         0.9570   -2.3170    1.4160 h1        1 336      0.057950
     37 H4         -0.9880   -0.9130   -1.4840 hc        1 336      0.053700
     38 H61        -1.8090    1.2520   -0.6070 hc        1 336      0.058950
     39 H62        -0.2880    1.4680    0.3550 hc        1 336      0.058950
     40 H91        -2.4120   -0.7900    0.5940 h1        1 336      0.057950
     41 H92        -2.1050    0.5600    1.7740 h1        1 336      0.057950
     42 H131        1.5760   -0.2890    0.1410 hc        1 336      0.058950
     43 H132        1.3420   -1.6900   -0.9840 hc        1 336      0.058950
     44 H17         4.1300   -1.5130   -4.1580 ha        1 336      0.151000
     45 H20        -1.7250   -1.6180   -5.7680 ha        1 336      0.152000
     46 H221       -0.0020   -2.0670   -2.7180 hc        1 336      0.061200
     47 H222       -0.2930   -2.6970   -4.3810 hc        1 336      0.061200
     48 H251        1.6220   -1.2980   -5.2400 hc        1 336      0.058700
     49 H252        2.0590   -2.6160   -4.0790 hc        1 336      0.058700
     50 H30         4.5800    1.8560   -1.4470 h4        1 336      0.038100
     51 H33         0.3040    1.7370   -1.8500 hc        1 336      0.102700
     52 H35        -2.7010    2.5620   -5.2380 ha        1 336      0.163000
     53 H432       -0.7130    2.1350    5.7810 hc        1 336      0.055950
     54 H461       -1.2780    1.9480    8.1960 h1        1 336      0.062950
     55 H462        0.2530    1.0710    7.7740 h1        1 336      0.062950
     56 H49         0.4490   -0.0160    5.4420 hc        1 336      0.075700
     57 H511       -2.3010   -1.3850    5.8440 hc        1 336      0.055950
     58 H512       -0.6990   -2.1680    5.4990 hc        1 336      0.055950
     59 H561       -4.0280    0.6240    9.9640 hn        1 336      0.299000
     60 H562       -2.6270    1.5410    9.8040 hn        1 336      0.299000
     61 H581        0.2280   -1.4210    7.6440 h1        1 336      0.062950
     62 H582       -1.3620   -2.2750    7.9370 h1        1 336      0.062950
     63 H611       -0.9270    1.1610    3.5750 hc        1 336      0.066200
     64 H612       -2.1800   -0.1350    3.8280 hc        1 336      0.066200
     65 BR37        6.4160    0.0420   -3.0010 br        1 336     -0.063100
     66 CL16       -3.4010    0.3780   -6.9050 cl        1 336     -0.080400
     67 H431       -2.3010    1.2970    6.0180 hc        1 336      0.055950
@<TRIPOS>BOND
     1    1    5 1   
     2    1    6 1   
     3    1   35 1   
     4    1   36 1   
     5    2    3 1   
     6    2    6 1   
     7    2   16 1   
     8    2   37 1   
     9    3    4 1   
    10    3   38 1   
    11    3   39 1   
    12    4    5 1   
    13    4   40 1   
    14    4   41 1   
    15    5   34 1   
    16    6   42 1   
    17    6   43 1   
    18    7   13 ar  
    19    7   21 ar  
    20    7   44 1   
    21    8    9 ar  
    22    8   17 ar  
    23    8   66 1   
    24    9   22 ar  
    25    9   45 1   
    26   10   11 1   
    27   10   22 1   
    28   10   46 1   
    29   10   47 1   
    30   11   21 1   
    31   11   48 1   
    32   11   49 1   
    33   12   17 ar  
    34   12   18 1   
    35   12   20 ar  
    36   13   14 ar  
    37   13   65 1   
    38   14   15 ar  
    39   14   50 1   
    40   15   19 ar  
    41   16   19 1   
    42   16   20 1   
    43   16   51 1   
    44   17   52 1   
    45   19   21 ar  
    46   20   22 ar  
    47   23   24 1   
    48   23   25 1   
    49   23   53 1   
    50   23   67 1   
    51   24   27 1   
    52   24   54 1   
    53   24   55 1   
    54   25   26 1   
    55   25   32 1   
    56   25   56 1   
    57   26   31 1   
    58   26   57 1   
    59   26   58 1   
    60   27   28 1   
    61   27   31 1   
    62   28   29 1   
    63   28   30 2   
    64   29   59 1   
    65   29   60 1   
    66   31   61 1   
    67   31   62 1   
    68   32   34 1   
    69   32   63 1   
    70   32   64 1   
    71   33   34 2   
@<TRIPOS>SUBSTRUCTURE
     1 336         1 TEMP              0 ****  ****    0 ROOT
