@<TRIPOS>MOLECULE
336
   68    69     1     0     0
SMALL
bcc


@<TRIPOS>ATOM
      1 C1         -0.8800   -2.8880   -1.4650 c3        1 336     -0.138000
      2 C4         -0.2420    0.1200    2.1810 c3        1 336     -0.187000
      3 C6          0.9350   -0.7310    2.6500 c3        1 336     -0.185000
      4 C9         -0.0170   -5.0640   -0.5350 cv        1 336      0.016000
      5 N12        -0.0030   -4.0140   -1.5340 n         1 336     -0.275000
      6 C13        -0.6860   -0.3390    0.8800 c1        1 336     -0.057000
      7 C17        -0.4260    3.8460   -0.7250 c2        1 336     -0.032000
      8 C19        -2.6570    3.5660    5.1640 c2        1 336     -0.157000
      9 C20        -3.2350    2.8380    4.0850 c1        1 336     -0.022000
     10 C22        -2.7680    2.3540    1.7340 c3        1 336     -0.117000
     11 C25        -2.0490    3.5380    1.1250 c3        1 336     -0.128000
     12 C28        -0.4020    3.0380    4.3960 c2        1 336     -0.194000
     13 C29         0.7670    3.5910   -1.3630 c2        1 336     -0.246000
     14 C30         1.7120    2.6880   -0.7820 c1        1 336     -0.163000
     15 N32         1.4010    2.1250    0.3910 n3        1 336     -0.099000
     16 C33         0.0700    1.6170    2.3990 c3        1 336     -0.080000
     17 C35        -1.3050    3.6780    5.3240 c2        1 336     -0.018000
     18 C39         0.2070    2.3490    1.0830 c2        1 336     -0.018000
     19 C40        -0.8640    2.2910    3.3540 c2        1 336     -0.044000
     20 C41        -0.7310    3.2080    0.5170 c2        1 336     -0.097000
     21 C42        -2.3380    2.1110    3.1810 c3        1 336     -0.151000
     22 C43         7.0710    3.5070   -0.5800 c3        1 336     -0.214000
     23 C46         5.0430    1.0150   -5.6040 c2        1 336      0.028000
     24 C49         5.7510    3.3920   -1.2980 c3        1 336     -0.153000
     25 C51         5.4570    1.9540   -1.6730 c3        1 336     -0.188000
     26 N54         5.2220    0.3390   -4.5380 n2        1 336     -0.207000
     27 C55         4.2310   -0.1780   -3.6860 c2        1 336      0.335000
     28 N56         3.7580   -1.4330   -3.7530 n3        1 336     -0.278000
     29 O57         3.7510    0.4900   -2.6110 os        1 336     -0.173000
     30 C58         4.1180    1.8680   -2.3650 c3        1 336     -0.092000
     31 C61         1.3390   -5.0930   -0.3740 cv        1 336     -0.291000
     32 O64         2.3050   -3.1730   -1.7700 o         1 336     -0.340000
     33 C65         1.4500   -3.9220   -1.3170 cv        1 336      0.346000
     34 H11        -0.6760   -2.2330   -2.3530 h1        1 336      0.098000
     35 H12        -1.9390   -3.2570   -1.5240 h1        1 336      0.098000
     36 H4         -1.1320   -0.1710    2.8350 hc        1 336      0.170000
     37 H61         0.6990   -1.8140    2.5080 hc        1 336      0.090667
     38 H62         1.8530   -0.4860    2.0640 hc        1 336      0.090667
     39 H91        -0.8970   -5.5850   -0.1700 h4        1 336      0.200000
     40 H92         1.1380   -0.5420    3.7310 hc        1 336      0.090667
     41 H131       -0.9850    0.4080    0.1310 ha        1 336      0.057000
     42 H132       -0.7630   -2.2720   -0.5280 h1        1 336      0.098000
     43 H17        -1.1710    4.5410   -1.1500 ha        1 336      0.166000
     44 H20        -2.5970    1.0300    3.4510 hc        1 336      0.174000
     45 H221       -2.5720    1.4290    1.1310 hc        1 336      0.108000
     46 H222       -2.7150    3.9820    0.3330 hc        1 336      0.113000
     47 H251       -1.8980    4.3370    1.9020 hc        1 336      0.113000
     48 H252       -3.8760    2.5420    1.7220 hc        1 336      0.108000
     49 H30         2.0730    1.5130    0.8110 hn        1 336      0.259000
     50 H33         1.0960    1.6570    2.8980 hc        1 336      0.131000
     51 H35        -0.8670    4.2610    6.1550 ha        1 336      0.174000
     52 H461        5.9650    1.3500   -6.1320 h4        1 336      0.169000
     53 H462        7.9070    3.1440   -1.2260 hc        1 336      0.082000
     54 H49         4.9270    3.7830   -0.6430 hc        1 336      0.088500
     55 H511        6.2750    1.5620   -2.3330 hc        1 336      0.095000
     56 H512        5.7670    4.0260   -2.2230 hc        1 336      0.088500
     57 H561        4.0750    1.3060   -6.0620 h4        1 336      0.169000
     58 H562        3.1800   -1.7830   -3.0070 hn        1 336      0.294000
     59 H581        3.2340    2.1960   -1.6730 h1        1 336      0.170500
     60 H582        4.0880    2.4550   -3.3160 h1        1 336      0.170500
     61 H611        2.0830   -5.7060    0.1070 ha        1 336      0.190000
     62 H612        5.4420    1.3160   -0.7500 hc        1 336      0.095000
     63 BR37        1.2170    4.3910   -2.9820 br        1 336      0.091000
     64 CL16       -3.7140    4.3250    6.2460 cl        1 336      0.043000
     65 H431        7.2700    4.5740   -0.3130 hc        1 336      0.082000
     66 H563        4.0620   -2.0710   -4.4560 hn        1 336      0.294000
     67 BR38        1.4240    3.3320    4.7370 br        1 336      0.079000
     68 H432        7.0650    2.9040    0.3590 hc        1 336      0.082000
@<TRIPOS>BOND
     1    1    5 1   
     2    1   34 1   
     3    1   35 1   
     4    1   42 1   
     5    2    3 1   
     6    2    6 1   
     7    2   16 1   
     8    2   36 1   
     9    3   37 1   
    10    3   38 1   
    11    3   40 1   
    12    4    5 1   
    13    4   31 1   
    14    4   39 1   
    15    5   33 1   
    16    6   41 1   
    17    7   13 1   
    18    7   20 1   
    19    7   43 1   
    20    8    9 1   
    21    8   17 1   
    22    8   64 1   
    23    9   21 1   
    24   10   11 1   
    25   10   21 1   
    26   10   45 1   
    27   10   48 1   
    28   11   20 1   
    29   11   46 1   
    30   11   47 1   
    31   12   17 1   
    32   12   19 1   
    33   12   67 1   
    34   13   14 1   
    35   13   63 1   
    36   14   15 1   
    37   15   18 1   
    38   15   49 1   
    39   16   18 1   
    40   16   19 1   
    41   16   50 1   
    42   17   51 1   
    43   18   20 1   
    44   19   21 1   
    45   21   44 1   
    46   22   24 1   
    47   22   53 1   
    48   22   65 1   
    49   22   68 1   
    50   23   26 1   
    51   23   52 1   
    52   23   57 1   
    53   24   25 1   
    54   24   54 1   
    55   24   56 1   
    56   25   30 1   
    57   25   55 1   
    58   25   62 1   
    59   26   27 1   
    60   27   28 1   
    61   27   29 1   
    62   28   58 1   
    63   28   66 1   
    64   29   30 1   
    65   30   59 1   
    66   30   60 1   
    67   31   33 1   
    68   31   61 1   
    69   32   33 1   
@<TRIPOS>SUBSTRUCTURE
     1 336         1 TEMP              0 ****  ****    0 ROOT
