@<TRIPOS>MOLECULE
337
   76    79     1     0     0
SMALL
bcc


@<TRIPOS>ATOM
      1 N1          2.3190    0.9190    0.2650 n         1 337     -0.464100
      2 C4          4.7610   -1.8500    0.8710 ca        1 337     -0.000300
      3 C5          4.7210    0.8060   -0.0230 ca        1 337     -0.025900
      4 C6          5.9500    0.1020    0.0100 ca        1 337      0.195600
      5 C7          5.9490   -1.2270    0.4760 ca        1 337     -0.215000
      6 C8        -10.8540   -1.0710   -1.2650 ca        1 337     -0.115000
      7 C10         4.8330   -3.2740    1.3670 c3        1 337     -0.012700
      8 C13         5.7360   -3.3330    2.5970 c3        1 337     -0.089100
      9 C15       -11.9520   -0.6170   -0.5360 ca        1 337     -0.133500
     10 C17       -10.6720   -0.7870    1.5050 ca        1 337     -0.133500
     11 C20         8.3100   -0.8600   -2.1210 c3        1 337     -0.374300
     12 C22        -0.8750    3.8240    0.4750 ca        1 337     -0.133000
     13 C24        -3.2170    4.3770   -0.1410 c3        1 337     -0.066800
     14 C26        -0.0240    1.5690    0.4800 ca        1 337     -0.142600
     15 C1         -9.6610   -1.3880   -0.6090 ca        1 337     -0.126300
     16 C2          3.5060    0.1770    0.3600 ca        1 337      0.096600
     17 C3          3.5500   -1.1600    0.8040 ca        1 337     -0.177000
     18 C9          4.8640    3.1080    0.4650 c3        1 337      0.104700
     19 C11         3.4670   -3.8300    1.7530 c3        1 337     -0.089100
     20 C12         5.4140   -4.1620    0.2690 c3        1 337     -0.089100
     21 C14         1.0570    0.5630    0.7190 c         1 337      0.683700
     22 C16       -11.8620   -0.4740    0.8480 ca        1 337     -0.124000
     23 C18        -9.5730   -1.2430    0.7800 ca        1 337     -0.115000
     24 C23        -2.1400    3.3820    0.0640 ca        1 337     -0.021300
     25 C25         0.1750    2.9370    0.6820 ca        1 337     -0.093000
     26 O15         0.8060   -0.5170    1.2820 o         1 337     -0.578100
     27 N16         7.1270    0.7290   -0.4190 nh        1 337     -0.772500
     28 S17         8.5850    0.0620   -0.7220 s6        1 337      1.470900
     29 O18         8.9880   -0.8150    0.2990 o         1 337     -0.647800
     30 O19         9.4640    1.1160   -1.0410 o         1 337     -0.647800
     31 C47        -1.2720    1.0940    0.0750 ca        1 337     -0.079000
     32 C48        -2.3360    1.9950   -0.1360 ca        1 337     -0.006200
     33 N49        -3.5960    1.4690   -0.5410 na        1 337      0.108300
     34 C50        -4.1780    0.3050   -0.0180 cc        1 337     -0.130600
     35 N51        -4.3850    1.9670   -1.5390 nc        1 337     -0.149800
     36 N52        -5.4060    1.2370   -1.6840 nd        1 337     -0.335000
     37 C53        -5.3640    0.1570   -0.7640 cd        1 337      0.193800
     38 C61        -6.3670   -0.9130   -0.6090 c         1 337      0.604600
     39 O62        -6.2400   -1.7580    0.3030 o         1 337     -0.617100
     40 N75        -7.3960   -0.9740   -1.5290 n         1 337     -0.538900
     41 C76        -8.4800   -1.9090   -1.3790 c3        1 337      0.130300
     42 HN1         2.4060    1.7900   -0.2180 hn        1 337      0.333500
     43 H7          6.8990   -1.7840    0.5600 ha        1 337      0.163000
     44 H13         5.3300   -2.6800    3.4050 hc        1 337      0.040811
     45 H13A        5.7870   -4.3820    2.9770 hc        1 337      0.040811
     46 H13B        6.7700   -2.9960    2.3480 hc        1 337      0.040811
     47 H15       -12.8900   -0.3710   -1.0550 ha        1 337      0.132000
     48 H17       -10.6000   -0.6750    2.5970 ha        1 337      0.132000
     49 H20         8.0470   -0.2430   -3.0150 h1        1 337      0.120033
     50 H20A        9.2320   -1.4320   -2.3980 h1        1 337      0.120033
     51 H20B        7.4970   -1.6190   -2.0060 h1        1 337      0.120033
     52 H22        -0.7150    4.9020    0.6400 ha        1 337      0.148000
     53 H24        -3.4250    4.5030   -1.2340 hc        1 337      0.062033
     54 H24A       -4.1630    4.0580    0.3640 hc        1 337      0.062033
     55 H24B       -2.9240    5.3740    0.2740 hc        1 337      0.062033
     56 H3          2.6120   -1.6570    1.1050 ha        1 337      0.183000
     57 H9          3.9990    3.1020    1.1720 h1        1 337      0.042700
     58 H9A         5.8170    2.9530    1.0260 h1        1 337      0.042700
     59 H9B         4.8960    4.0620   -0.1180 h1        1 337      0.042700
     60 H11         2.7780   -3.8330    0.8750 hc        1 337      0.040811
     61 H11A        3.5810   -4.8820    2.1130 hc        1 337      0.040811
     62 H11B        3.0120   -3.2260    2.5740 hc        1 337      0.040811
     63 H12         6.4470   -3.8380    0.0020 hc        1 337      0.040811
     64 H12A        5.4560   -5.2200    0.6230 hc        1 337      0.040811
     65 H12B        4.7740   -4.1160   -0.6440 hc        1 337      0.040811
     66 H16       -12.7290   -0.1150    1.4220 ha        1 337      0.131000
     67 H18        -8.6280   -1.4950    1.2890 ha        1 337      0.141500
     68 H25         1.1500    3.3210    1.0220 ha        1 337      0.143000
     69 HN16        6.9890    1.6990   -0.6230 hn        1 337      0.464800
     70 H47        -1.4110    0.0080   -0.0630 ha        1 337      0.167000
     71 H50        -3.7510   -0.2890    0.7910 h4        1 337      0.218000
     72 HN75       -7.5620   -0.1880   -2.1140 hn        1 337      0.324500
     73 H76        -8.0870   -2.8290   -0.8540 h1        1 337      0.070200
     74 H76A       -8.8100   -2.2050   -2.4170 h1        1 337      0.070200
     75 O8          4.6950    2.1020   -0.5360 os        1 337     -0.350900
     76 H8        -10.9290   -1.1830   -2.3570 ha        1 337      0.141500
@<TRIPOS>BOND
     1    1   16 1   
     2    1   21 1   
     3    1   42 1   
     4    2    5 ar  
     5    2    7 1   
     6    2   17 ar  
     7    3    4 ar  
     8    3   16 ar  
     9    3   75 1   
    10    4    5 ar  
    11    4   27 1   
    12    5   43 1   
    13    6    9 ar  
    14    6   15 ar  
    15    6   76 1   
    16    7    8 1   
    17    7   19 1   
    18    7   20 1   
    19    8   44 1   
    20    8   45 1   
    21    8   46 1   
    22    9   22 ar  
    23    9   47 1   
    24   10   22 ar  
    25   10   23 ar  
    26   10   48 1   
    27   11   28 1   
    28   11   49 1   
    29   11   50 1   
    30   11   51 1   
    31   12   24 ar  
    32   12   25 ar  
    33   12   52 1   
    34   13   24 1   
    35   13   53 1   
    36   13   54 1   
    37   13   55 1   
    38   14   21 1   
    39   14   25 ar  
    40   14   31 ar  
    41   15   23 ar  
    42   15   41 1   
    43   16   17 ar  
    44   17   56 1   
    45   18   57 1   
    46   18   58 1   
    47   18   59 1   
    48   18   75 1   
    49   19   60 1   
    50   19   61 1   
    51   19   62 1   
    52   20   63 1   
    53   20   64 1   
    54   20   65 1   
    55   21   26 2   
    56   22   66 1   
    57   23   67 1   
    58   24   32 ar  
    59   25   68 1   
    60   27   28 1   
    61   27   69 1   
    62   28   29 2   
    63   28   30 2   
    64   31   32 ar  
    65   31   70 1   
    66   32   33 1   
    67   33   34 1   
    68   33   35 1   
    69   34   37 2   
    70   34   71 1   
    71   35   36 2   
    72   36   37 1   
    73   37   38 1   
    74   38   39 2   
    75   38   40 1   
    76   40   41 1   
    77   40   72 1   
    78   41   73 1   
    79   41   74 1   
@<TRIPOS>SUBSTRUCTURE
     1 337         1 TEMP              0 ****  ****    0 ROOT
