@<TRIPOS>MOLECULE
337
   76    76     1     0     0
SMALL
bcc


@<TRIPOS>ATOM
      1 N1         -0.0940    0.3580   -0.1780 n         1 337     -0.320000
      2 C4          3.6290    0.5920    0.1050 ca        1 337     -0.008000
      3 C5          1.3840    0.2070    1.7360 ca        1 337     -0.071000
      4 C6          2.6740    0.2450    2.3260 ca        1 337      0.093000
      5 C7          3.7880    0.4280    1.4840 ca        1 337     -0.199000
      6 C8         -5.2100    4.3540  -12.7420 c2        1 337     -0.136000
      7 C10         4.8670    0.7860   -0.7370 c3        1 337     -0.017000
      8 C13         5.7760   -0.4320   -0.5850 c3        1 337     -0.206333
      9 C15        -5.3220    5.8310  -12.7380 c3        1 337     -0.237000
     10 C17        -4.5650    4.5900   -9.2740 c1        1 337     -0.166000
     11 C20         4.1250    2.0920    4.8970 c3        1 337     -0.717000
     12 C22        -3.6490    2.2030   -1.8560 c2        1 337     -0.105000
     13 C24        -5.4810    1.9740   -3.4510 c2        1 337     -0.150000
     14 C26        -2.0000    0.3660   -1.7480 c3        1 337     -0.061000
     15 C1         -4.9460    3.6000  -11.6560 c2        1 337     -0.034000
     16 C2          1.2150    0.3750    0.3360 ca        1 337      0.088000
     17 C3          2.3550    0.5720   -0.4650 ca        1 337     -0.177000
     18 C9          1.4940   -3.4640    3.8820 c2        1 337      0.159000
     19 C11         4.5500    0.9610   -2.2170 c3        1 337     -0.206333
     20 C12         5.6110    2.0320   -0.2600 c3        1 337     -0.206333
     21 C14        -0.4810    0.3320   -1.5060 c2        1 337      0.318000
     22 C16        -6.4280    6.4280  -13.4540 c1        1 337     -0.045000
     23 C18        -4.7420    4.1450  -10.3720 c1        1 337     -0.159000
     24 C23        -4.2290    1.6620   -3.0840 c2        1 337     -0.066000
     25 C25        -2.6150    1.6220   -1.2330 c2        1 337     -0.169000
     26 O15         0.3190    0.2470   -2.4530 o         1 337     -0.343000
     27 N16         2.8090    0.0840    3.7090 nh        1 337     -0.665000
     28 S17         4.0580    0.3590    4.7210 s4        1 337      1.525000
     29 O18         5.3370    0.0160    4.0480 o         1 337     -0.789000
     30 O19         1.0520   -2.3490    4.1570 o         1 337     -0.316000
     31 C47        -2.2860    0.1510   -3.1950 c2        1 337     -0.145000
     32 C48        -3.3400    0.7390   -3.8140 c2        1 337      0.065000
     33 N49        -3.5910    0.4880   -5.1940 na        1 337     -0.128000
     34 C50        -3.3860   -0.7380   -5.8390 c2        1 337     -0.048000
     35 N51        -3.9770    1.4260   -6.1120 n2        1 337      0.019000
     36 N52        -4.0470    0.9020   -7.2600 n2        1 337     -0.069000
     37 C53        -3.6900   -0.4730   -7.1900 c2        1 337     -0.265000
     38 C61        -3.6680   -1.3830   -8.3330 c2        1 337      0.264000
     39 O62        -3.3690   -2.5740   -8.2070 o         1 337     -0.298000
     40 N75        -4.6410    1.2530  -10.8740 n2        1 337     -0.229000
     41 C76        -4.8570    2.1260  -11.7780 c2        1 337     -0.025000
     42 HN1        -0.8130    0.3990    0.5150 hn        1 337      0.244000
     43 H7          4.8050    0.4340    1.9150 ha        1 337      0.175000
     44 H13         5.2440   -1.3530   -0.9230 hc        1 337      0.078778
     45 H13A        6.6930   -0.2990   -1.2080 hc        1 337      0.078778
     46 H13B        6.0850   -0.5650    0.4790 hc        1 337      0.078778
     47 H15        -4.3780    6.2790  -13.1780 hc        1 337      0.164500
     48 H17        -7.1270    5.7420  -13.9590 ha        1 337      0.039000
     49 H20         4.3830    2.6380    3.9620 h1        1 337      0.126667
     50 H20A        3.1580    2.4970    5.2710 h1        1 337      0.126667
     51 H20B        4.9170    2.3330    5.6450 h1        1 337      0.126667
     52 H22        -2.1970    2.0470   -0.3080 ha        1 337      0.143000
     53 H24        -4.1180    3.1170   -1.4580 ha        1 337      0.142000
     54 H24A       -6.0920    2.6670   -2.8550 ha        1 337      0.128500
     55 H24B       -5.9790    1.5720   -4.3420 ha        1 337      0.128500
     56 H3          2.2310    0.7050   -1.5520 ha        1 337      0.177000
     57 H9          0.2200   -0.8370    2.8270 ho        1 337      0.224000
     58 H9A         1.3050   -3.9460    2.9000 h4        1 337      0.080500
     59 H9B         2.1050   -4.0480    4.6020 h4        1 337      0.080500
     60 H11         4.0260    0.0600   -2.6180 hc        1 337      0.078778
     61 H11A        5.4990    1.0990   -2.7890 hc        1 337      0.078778
     62 H11B        3.9080    1.8600   -2.3800 hc        1 337      0.078778
     63 H12         6.5190    2.1940   -0.8900 hc        1 337      0.078778
     64 H12A        4.9530    2.9290   -0.3430 hc        1 337      0.078778
     65 H12B        5.9330    1.9180    0.8020 hc        1 337      0.078778
     66 H16        -5.3750    6.2320  -11.6790 hc        1 337      0.164500
     67 H18        -4.4050    4.9710   -8.2960 ha        1 337      0.231000
     68 H25        -2.4530   -0.5060   -1.1810 hc        1 337      0.129000
     69 HN16        1.9440   -0.1470    4.1540 hn        1 337      0.246000
     70 H47        -1.5730   -0.5050   -3.7240 ha        1 337      0.167000
     71 H50        -3.0690   -1.6500   -5.3320 h4        1 337      0.209000
     72 HN75       -3.9360   -0.9360   -9.3160 h4        1 337      0.140000
     73 H76        -4.5110    1.5860   -9.9400 hn        1 337      0.159000
     74 H76A       -5.0010    1.7480  -12.8150 h4        1 337      0.142000
     75 O8          0.2550    0.0900    2.5360 oh        1 337     -0.288000
     76 H8         -5.3610    3.8700  -13.7230 ha        1 337      0.130000
@<TRIPOS>BOND
     1    1   16 1   
     2    1   21 1   
     3    1   42 1   
     4    2    5 1   
     5    2    7 1   
     6    2   17 1   
     7    3    4 1   
     8    3   16 1   
     9    3   75 1   
    10    4    5 1   
    11    4   27 1   
    12    5   43 1   
    13    6    9 1   
    14    6   15 1   
    15    6   76 1   
    16    7    8 1   
    17    7   19 1   
    18    7   20 1   
    19    8   44 1   
    20    8   45 1   
    21    8   46 1   
    22    9   22 1   
    23    9   47 1   
    24    9   66 1   
    25   10   23 1   
    26   10   67 1   
    27   11   28 1   
    28   11   49 1   
    29   11   50 1   
    30   11   51 1   
    31   12   24 1   
    32   12   25 1   
    33   12   53 1   
    34   13   24 1   
    35   13   54 1   
    36   13   55 1   
    37   14   21 1   
    38   14   25 1   
    39   14   31 1   
    40   14   68 1   
    41   15   23 1   
    42   15   41 1   
    43   16   17 1   
    44   17   56 1   
    45   18   30 1   
    46   18   58 1   
    47   18   59 1   
    48   19   60 1   
    49   19   61 1   
    50   19   62 1   
    51   20   63 1   
    52   20   64 1   
    53   20   65 1   
    54   21   26 1   
    55   22   48 1   
    56   24   32 1   
    57   25   52 1   
    58   27   28 1   
    59   27   69 1   
    60   28   29 1   
    61   31   32 1   
    62   31   70 1   
    63   32   33 1   
    64   33   34 1   
    65   33   35 1   
    66   34   37 1   
    67   34   71 1   
    68   35   36 1   
    69   36   37 1   
    70   37   38 1   
    71   38   39 1   
    72   38   72 1   
    73   40   41 1   
    74   40   73 1   
    75   41   74 1   
    76   57   75 1   
@<TRIPOS>SUBSTRUCTURE
     1 337         1 TEMP              0 ****  ****    0 ROOT
