@<TRIPOS>MOLECULE
337
   76    68     1     0     0
SMALL
bcc


@<TRIPOS>ATOM
      1 N1          0.4840   -1.6960    2.7360 n         1 337     -0.331000
      2 C4          4.0040   -2.7160    3.3990 c1        1 337     -0.012000
      3 C5          2.3030   -0.5780    3.9510 c1        1 337      0.005000
      4 C6          3.5930   -0.5900    4.4720 c1        1 337      0.091000
      5 C7          4.4440   -1.6570    4.1980 c2        1 337     -0.185000
      6 C8         -5.4720    3.4570   -8.5560 c1        1 337     -0.123000
      7 C10         4.9530   -3.8710    3.0660 c2        1 337     -0.020000
      8 C13         5.5410   -3.6600    1.6950 c3        1 337     -0.205667
      9 C15        -5.3160    3.3290   -9.9330 c1        1 337     -0.120500
     10 C17        -3.0230    4.0270   -9.7360 c1        1 337     -0.131000
     11 C20         4.9700    3.0950    5.9850 c3        1 337     -0.954000
     12 C22        -3.5610   -2.0460    1.1410 c1        1 337     -0.120500
     13 C24        -5.2430   -1.5510   -0.6900 c3        1 337     -0.191000
     14 C26        -1.4820   -0.8380    1.3070 c1        1 337     -0.122000
     15 C1         -4.4020    3.8700   -7.7690 c1        1 337     -0.113000
     16 C2          1.8610   -1.6370    3.1520 c2        1 337      0.070000
     17 C3          2.7140   -2.7040    2.8780 c2        1 337     -0.175000
     18 C9          0.7310    0.5540    5.3020 c3        1 337     -0.078000
     19 C11         6.0630   -3.9200    4.0870 c3        1 337     -0.205667
     20 C12         4.1820   -5.1850    3.0910 c3        1 337     -0.205667
     21 C14        -0.0120   -0.7620    1.7700 c2        1 337      0.347000
     22 C16        -4.0930    3.6140  -10.5210 c1        1 337     -0.120500
     23 C18        -3.1790    4.1550   -8.3580 c2        1 337     -0.109000
     24 C23        -3.8660   -1.3660   -0.0340 c1        1 337     -0.015000
     25 C25        -2.3680   -1.7810    1.8120 c1        1 337     -0.120500
     26 O8          1.4930    0.5610    4.1150 os        1 337     -0.211000
     27 O15         0.7270    0.0770    1.3030 o         1 337     -0.312000
     28 N16         4.0270    0.4770    5.3740 n3        1 337     -0.821000
     29 S17         4.9270    1.7570    4.7830 s6        1 337      2.826000
     30 O18         4.4210    2.2100    3.5210 o         1 337     -0.929500
     31 O19         6.2490    1.3400    4.4200 o         1 337     -0.929500
     32 C47        -1.7850   -0.1560    0.1320 c1        1 337     -0.082000
     33 C48        -2.9780   -0.4200   -0.5400 c1        1 337      0.037000
     34 N49        -3.2020    0.1340   -1.7730 n2        1 337     -0.102000
     35 C50        -3.6070    1.3900   -2.0110 c1        1 337     -0.133000
     36 N51        -3.0260   -0.4850   -2.9700 n2        1 337      0.018000
     37 N52        -3.3280    0.4080   -3.9550 n2        1 337     -0.102000
     38 C53        -3.6850    1.5600   -3.3750 c1        1 337     -0.133000
     39 C61        -4.1990    2.8220   -4.1050 c1        1 337      0.389000
     40 O62        -4.5800    3.7780   -3.4660 o         1 337     -0.375000
     41 N75        -4.2730    2.8420   -5.5550 n3        1 337     -0.350000
     42 C76        -4.5770    4.0790   -6.2510 c2        1 337      0.003000
     43 HN1        -0.0500   -2.3710    3.0310 hn        1 337      0.229000
     44 H7          5.3490   -1.6650    4.5630 ha        1 337      0.176000
     45 H8         -6.3330    3.2560   -8.1420 ha        1 337      0.130000
     46 H13         4.8880   -3.9210    1.0160 hc        1 337      0.079333
     47 H13A        6.3480   -4.2050    1.5990 hc        1 337      0.079333
     48 H13B        5.7690   -2.7180    1.5810 hc        1 337      0.079333
     49 H15        -6.0660    3.0390  -10.4850 ha        1 337      0.139250
     50 H17        -2.1630    4.2280  -10.1500 ha        1 337      0.133000
     51 H20         4.2110    3.6970    5.8310 h1        1 337      0.160333
     52 H20A        4.9130    2.7230    6.8870 h1        1 337      0.160333
     53 H20B        5.8130    3.5970    5.8890 h1        1 337      0.160333
     54 H22        -4.1840   -2.7110    1.4970 ha        1 337      0.139250
     55 H24        -5.1280   -1.9150   -1.5910 hc        1 337      0.100333
     56 H24A       -5.6970   -0.6840   -0.7430 hc        1 337      0.100333
     57 H24B       -5.7850   -2.1740   -0.1490 hc        1 337      0.100333
     58 H3          2.4080   -3.4410    2.3220 ha        1 337      0.140000
     59 H9         -0.1820    0.8660    5.1080 h1        1 337      0.080333
     60 H9A         0.6960   -0.3580    5.6630 h1        1 337      0.080333
     61 H9B         1.1480    1.1510    5.9620 h1        1 337      0.080333
     62 H11         6.4690   -3.0350    4.1690 hc        1 337      0.079333
     63 H11A        6.7420   -4.5640    3.8000 hc        1 337      0.079333
     64 H11B        5.6980   -4.1930    4.9520 hc        1 337      0.079333
     65 H12         3.5990   -5.2060    3.8750 hc        1 337      0.079333
     66 H12A        4.8120   -5.9340    3.1320 hc        1 337      0.079333
     67 H12B        3.6370   -5.2590    2.2770 hc        1 337      0.079333
     68 H16        -3.9830    3.5250  -11.4910 ha        1 337      0.139250
     69 H18        -2.4300    4.4440   -7.8080 ha        1 337      0.141000
     70 H25        -2.1550   -2.2600    2.6380 ha        1 337      0.139250
     71 HN16        3.8520    0.4170    6.2720 hn        1 337      0.261000
     72 H47        -1.1600    0.5090   -0.2230 ha        1 337      0.168000
     73 H50        -3.8110    2.0650   -1.3360 DU        1 337      0.219000
     74 HN75       -4.1850    2.0620   -6.0280 hn        1 337      0.236000
     75 H76        -5.5010    4.3410   -6.0620 h4        1 337      0.111000
     76 H76A       -3.9710    4.7800   -5.9470 h4        1 337      0.111000
@<TRIPOS>BOND
     1    1   16 1   
     2    1   21 1   
     3    1   43 1   
     4    2    5 1   
     5    2   17 1   
     6    3   16 1   
     7    3   26 1   
     8    4    5 1   
     9    4   28 1   
    10    5   44 1   
    11    6   15 1   
    12    6   45 1   
    13    7    8 1   
    14    7   19 1   
    15    7   20 1   
    16    8   46 1   
    17    8   47 1   
    18    8   48 1   
    19    9   22 1   
    20    9   49 1   
    21   10   23 1   
    22   10   50 1   
    23   11   29 1   
    24   11   51 1   
    25   11   52 1   
    26   11   53 1   
    27   12   25 1   
    28   12   54 1   
    29   13   24 1   
    30   13   55 1   
    31   13   56 1   
    32   13   57 1   
    33   14   21 1   
    34   14   32 1   
    35   15   23 1   
    36   16   17 1   
    37   17   58 1   
    38   18   26 1   
    39   18   59 1   
    40   18   60 1   
    41   18   61 1   
    42   19   62 1   
    43   19   63 1   
    44   19   64 1   
    45   20   65 1   
    46   20   66 1   
    47   20   67 1   
    48   21   27 1   
    49   22   68 1   
    50   23   69 1   
    51   24   33 1   
    52   25   70 1   
    53   28   29 1   
    54   28   71 1   
    55   29   30 1   
    56   29   31 1   
    57   32   72 1   
    58   34   35 1   
    59   34   36 1   
    60   35   38 1   
    61   36   37 1   
    62   37   38 1   
    63   39   40 1   
    64   39   41 1   
    65   41   42 1   
    66   41   74 1   
    67   42   75 1   
    68   42   76 1   
@<TRIPOS>SUBSTRUCTURE
     1 337         1 TEMP              0 ****  ****    0 ROOT
