@<TRIPOS>MOLECULE
337
   77    79     1     0     0
SMALL
bcc


@<TRIPOS>ATOM
      1 N1         -0.3110    1.8440   -0.8460 n         1 337     -0.299000
      2 C4          2.9210    1.2880    0.9570 ca        1 337      0.015000
      3 C5          1.5000    0.2850   -1.2430 ca        1 337     -0.072000
      4 C6          2.7440   -0.2980   -0.8950 ca        1 337      0.124000
      5 C7          3.4470    0.2330    0.2050 ca        1 337     -0.205000
      6 C8         -4.5260   -1.5920  -10.5730 c3        1 337     -0.071000
      7 C10         3.7310    1.8110    2.1190 c3        1 337     -0.022000
      8 C13         5.0710    2.3300    1.6030 c3        1 337     -0.207667
      9 C15        -3.3320   -1.0180  -11.1180 c1        1 337     -0.234000
     10 C17        -7.7010   -1.5480   -9.1550 c1        1 337     -0.100000
     11 C20         4.2810   -3.2080   -0.0920 c3        1 337     -0.956000
     12 C22        -3.3040    5.4190   -1.7590 c2        1 337     -0.214000
     13 C24        -4.1770    5.7760   -4.0630 c3        1 337     -0.230000
     14 C26        -2.3010    3.2930   -1.0040 c3        1 337     -0.167000
     15 C1         -5.2760   -0.6410   -9.6330 c3        1 337      0.013000
     16 C2          0.9510    1.3460   -0.4750 ca        1 337      0.092000
     17 C3          1.6770    1.8330    0.6270 ca        1 337     -0.175000
     18 C9          1.0590    0.3310   -3.5570 c3        1 337     -0.086000
     19 C11         3.0320    2.9460    2.8560 c3        1 337     -0.207667
     20 C12         3.9750    0.6780    3.1140 c3        1 337     -0.207667
     21 C14        -0.9080    3.0010   -0.4030 c2        1 337      0.350000
     22 C16        -2.3380   -0.5880  -11.6310 c1        1 337     -0.163000
     23 C18        -6.5930   -1.1430   -9.3550 c1        1 337     -0.241000
     24 C23        -3.5270    4.8910   -3.0790 c2        1 337      0.155000
     25 C25        -2.7000    4.7030   -0.7800 c2        1 337     -0.025000
     26 O15        -0.4400    3.7800    0.4440 o         1 337     -0.338000
     27 S17         4.6280   -2.2240   -1.4270 s6        1 337      2.826000
     28 O18         5.7010   -1.3860   -1.0880 o         1 337     -0.922000
     29 O19         4.7720   -3.0380   -2.5680 o         1 337     -0.922000
     30 C47        -2.4410    2.8000   -2.3660 c1        1 337     -0.161000
     31 C48        -3.0920    3.5880   -3.3360 c2        1 337     -0.119000
     32 N49        -3.2170    2.9490   -4.6140 na        1 337     -0.061000
     33 C50        -2.4940    1.8160   -4.9540 c2        1 337      0.065000
     34 N51        -4.0770    3.2800   -5.6270 n2        1 337      0.043000
     35 N52        -3.9580    2.4660   -6.5830 n2        1 337     -0.070000
     36 C53        -2.9740    1.4900   -6.2570 c2        1 337     -0.343000
     37 C61        -2.5510    0.4060   -7.0910 c2        1 337      0.368000
     38 O62        -1.6850   -0.4330   -6.8750 o         1 337     -0.208000
     39 N75        -3.2540    0.2790   -8.4290 n4        1 337     -0.099000
     40 C76        -4.5410   -0.4630   -8.2900 c3        1 337     -0.127000
     41 HN1        -0.7860    1.3290   -1.5650 hn        1 337      0.267000
     42 H7          4.4430   -0.1650    0.4680 ha        1 337      0.164000
     43 H13         4.9090    3.1550    0.8700 hc        1 337      0.081889
     44 H13A        5.6490    1.5160    1.1050 hc        1 337      0.081889
     45 H13B        5.6750    2.7240    2.4560 hc        1 337      0.081889
     46 H15        -4.2800   -2.5480  -10.0300 hc        1 337      0.135500
     47 H17        -8.6870   -1.9080   -8.9790 ha        1 337      0.245000
     48 H20         3.4640   -3.9470   -0.2800 h1        1 337      0.162333
     49 H20A        3.9920   -2.6390    0.8260 h1        1 337      0.162333
     50 H20B        5.1810   -3.8120    0.1930 h1        1 337      0.162333
     51 H22        -2.4850    5.1310    0.2160 ha        1 337      0.187000
     52 H24        -3.5670    5.8490   -5.0000 hc        1 337      0.125667
     53 H24A       -4.3150    6.8110   -3.6590 hc        1 337      0.125667
     54 H24B       -5.1890    5.3740   -4.3350 hc        1 337      0.125667
     55 H3          1.2580    2.6580    1.2270 ha        1 337      0.179000
     56 H9          0.7020    1.3900   -3.5790 h1        1 337      0.079333
     57 H9A         0.4890   -0.2960   -4.2880 h1        1 337      0.079333
     58 H9B         2.1540    0.2930   -3.7700 h1        1 337      0.079333
     59 H11         2.8560    3.8120    2.1740 hc        1 337      0.081889
     60 H11A        2.0550    2.6050    3.2760 hc        1 337      0.081889
     61 H11B        3.6740    3.2920    3.7020 hc        1 337      0.081889
     62 H12         4.5610    1.0610    3.9840 hc        1 337      0.081889
     63 H12A        3.0040    0.2740    3.4870 hc        1 337      0.081889
     64 H12B        4.5520   -0.1500    2.6380 hc        1 337      0.081889
     65 H16        -1.4600   -0.2170  -12.1040 ha        1 337      0.245000
     66 H18        -5.3810    0.3660  -10.1410 hc        1 337      0.128000
     67 H25        -3.6290    6.4580   -1.5700 ha        1 337      0.169000
     68 HN16        2.6230   -1.6480   -2.3730 hn        1 337      0.257000
     69 H47        -3.0270    2.6400   -0.3980 hc        1 337      0.217000
     70 H50        -1.7540    1.3470   -4.2900 h4        1 337      0.252000
     71 HN75       -2.6390   -0.2350   -9.0810 hn        1 337      0.263000
     72 H76        -4.3090   -1.4730   -7.8450 hx        1 337      0.154500
     73 H76A       -5.2000    0.1130   -7.5770 hx        1 337      0.154500
     74 O8          0.7600   -0.2610   -2.2920 os        1 337     -0.232000
     75 H8         -5.2160   -1.8670  -11.4240 hc        1 337      0.135500
     76 H752       -3.4390    1.2090   -8.8210 hn        1 337      0.263000
     77 N16         3.2430   -1.3740   -1.6370 nh        1 337     -0.822000
@<TRIPOS>BOND
     1    1   16 1   
     2    1   21 1   
     3    1   41 1   
     4    2    5 1   
     5    2    7 1   
     6    2   17 1   
     7    3    4 1   
     8    3   16 1   
     9    3   74 1   
    10    4    5 1   
    11    4   77 1   
    12    5   42 1   
    13    6    9 1   
    14    6   15 1   
    15    6   46 1   
    16    6   75 1   
    17    7    8 1   
    18    7   19 1   
    19    7   20 1   
    20    8   43 1   
    21    8   44 1   
    22    8   45 1   
    23    9   22 1   
    24   10   23 1   
    25   10   47 1   
    26   11   27 1   
    27   11   48 1   
    28   11   49 1   
    29   11   50 1   
    30   12   24 1   
    31   12   25 1   
    32   12   67 1   
    33   13   24 1   
    34   13   52 1   
    35   13   53 1   
    36   13   54 1   
    37   14   21 1   
    38   14   25 1   
    39   14   30 1   
    40   14   69 1   
    41   15   23 1   
    42   15   40 1   
    43   15   66 1   
    44   16   17 1   
    45   17   55 1   
    46   18   56 1   
    47   18   57 1   
    48   18   58 1   
    49   18   74 1   
    50   19   59 1   
    51   19   60 1   
    52   19   61 1   
    53   20   62 1   
    54   20   63 1   
    55   20   64 1   
    56   21   26 1   
    57   22   65 1   
    58   24   31 1   
    59   25   51 1   
    60   27   28 1   
    61   27   29 1   
    62   27   77 1   
    63   30   31 1   
    64   31   32 1   
    65   32   33 1   
    66   32   34 1   
    67   33   36 1   
    68   33   70 1   
    69   34   35 1   
    70   35   36 1   
    71   36   37 1   
    72   37   38 1   
    73   37   39 1   
    74   39   40 1   
    75   39   71 1   
    76   39   76 1   
    77   40   72 1   
    78   40   73 1   
    79   68   77 1   
@<TRIPOS>SUBSTRUCTURE
     1 337         1 TEMP              0 ****  ****    0 ROOT
