@<TRIPOS>MOLECULE
338
   32    35     1     0     0
SMALL
bcc


@<TRIPOS>ATOM
      1 C1          0.1410    0.2600   -0.1350 ca        1 338      0.145100
      2 C2          1.5440    0.2050   -0.0540 ca        1 338     -0.148000
      3 C3          2.0530    0.0980    1.2280 ca        1 338      0.070100
      4 C4          1.2360    0.0420    2.4120 ca        1 338      0.019400
      5 C5         -0.1540    0.1010    2.2840 ca        1 338     -0.027000
      6 C6         -0.6890    0.2090    1.0050 ca        1 338     -0.229000
      7 O10         3.3840    0.0250    1.6230 os        1 338     -0.311700
      8 C11         3.3220   -0.0770    3.0550 cc        1 338      0.591200
      9 N12         2.0850   -0.0630    3.5370 nd        1 338     -0.541100
     10 C13         4.6280   -0.1110    3.7040 ca        1 338     -0.121900
     11 C15         4.9090   -1.0150    4.7730 ca        1 338      0.029000
     12 C16         6.1930   -0.9450    5.3790 ca        1 338     -0.065000
     13 C17         7.1570   -0.0140    4.9130 ca        1 338     -0.066000
     14 C18         6.8630    0.8250    3.8650 ca        1 338     -0.155000
     15 C19         5.5920    0.7760    3.2560 ca        1 338     -0.066000
     16 C23         3.9790   -1.9840    5.2400 ca        1 338     -0.148000
     17 C24         4.2980   -2.8260    6.2780 ca        1 338     -0.083000
     18 C25         5.5590   -2.7590    6.9070 ca        1 338     -0.226000
     19 C26         6.4860   -1.8360    6.4610 ca        1 338      0.142100
     20 O30        -0.3770    0.3660   -1.4050 oh        1 338     -0.493100
     21 O31         7.7410   -1.7130    7.0140 oh        1 338     -0.499100
     22 H2          2.1740    0.2450   -0.9500 ha        1 338      0.171000
     23 H5         -0.8050    0.0630    3.1700 ha        1 338      0.155000
     24 H6         -1.7800    0.2570    0.8760 ha        1 338      0.139000
     25 H17         8.1410    0.0140    5.4090 ha        1 338      0.154000
     26 H18         7.6080    1.5430    3.4920 ha        1 338      0.141000
     27 H19         5.3690    1.4540    2.4170 ha        1 338      0.148000
     28 H23         2.9910   -2.0650    4.7630 ha        1 338      0.155000
     29 H24         3.5690   -3.5710    6.6340 ha        1 338      0.137000
     30 H25         5.7920   -3.4380    7.7380 ha        1 338      0.136000
     31 H30        -1.3430    0.3950   -1.3340 ho        1 338      0.423000
     32 H31         7.8160   -2.3620    7.7290 ho        1 338      0.424000
@<TRIPOS>BOND
     1    1    2 ar  
     2    1    6 ar  
     3    1   20 1   
     4    2    3 ar  
     5    2   22 1   
     6    3    4 ar  
     7    3    7 1   
     8    4    5 ar  
     9    4    9 1   
    10    5    6 ar  
    11    5   23 1   
    12    6   24 1   
    13    7    8 1   
    14    8    9 2   
    15    8   10 1   
    16   10   11 ar  
    17   10   15 ar  
    18   11   12 ar  
    19   11   16 ar  
    20   12   13 ar  
    21   12   19 ar  
    22   13   14 ar  
    23   13   25 1   
    24   14   15 ar  
    25   14   26 1   
    26   15   27 1   
    27   16   17 ar  
    28   16   28 1   
    29   17   18 ar  
    30   17   29 1   
    31   18   19 ar  
    32   18   30 1   
    33   19   21 1   
    34   20   31 1   
    35   21   32 1   
@<TRIPOS>SUBSTRUCTURE
     1 338         1 TEMP              0 ****  ****    0 ROOT
