@<TRIPOS>MOLECULE
338
   32    35     1     0     0
SMALL
bcc


@<TRIPOS>ATOM
      1 C1          4.9680   -0.2010   -0.2650 ca        1 338      0.145100
      2 C2          3.8730   -0.9670   -0.7020 ca        1 338     -0.148000
      3 C3          2.6410   -0.5580   -0.2200 ca        1 338      0.070100
      4 C4          2.4610    0.5640    0.6630 ca        1 338      0.019400
      5 C5          3.5770    1.2970    1.0730 ca        1 338     -0.027000
      6 C6          4.8250    0.9030    0.6010 ca        1 338     -0.229000
      7 O10         1.3910   -1.1110   -0.4700 os        1 338     -0.311700
      8 C11         0.4840   -0.2880    0.2790 cc        1 338      0.591200
      9 N12         1.0820    0.6880    0.9520 nd        1 338     -0.541100
     10 C13        -0.9070   -0.7220    0.2100 ca        1 338     -0.121900
     11 C15        -1.9740    0.2110    0.0350 ca        1 338      0.029000
     12 C16        -3.3020   -0.2960    0.0280 ca        1 338     -0.065000
     13 C17        -3.5400   -1.6880    0.1710 ca        1 338     -0.066000
     14 C18        -2.4890   -2.5620    0.3110 ca        1 338     -0.155000
     15 C19        -1.1650   -2.0760    0.3300 ca        1 338     -0.066000
     16 C23        -1.7690    1.6060   -0.1480 ca        1 338     -0.148000
     17 C24        -2.8320    2.4620   -0.3050 ca        1 338     -0.083000
     18 C25        -4.1590    1.9820   -0.2950 ca        1 338     -0.226000
     19 C26        -4.3840    0.6280   -0.1340 ca        1 338      0.142100
     20 O30         6.1970   -0.5980   -0.7380 oh        1 338     -0.493100
     21 O31        -5.6460    0.0790   -0.1210 oh        1 338     -0.499100
     22 H2          4.0010   -1.8220   -1.3760 ha        1 338      0.171000
     23 H5          3.4720    2.1580    1.7480 ha        1 338      0.155000
     24 H6          5.7210    1.4630    0.9080 ha        1 338      0.139000
     25 H17        -4.5830   -2.0440    0.1630 ha        1 338      0.154000
     26 H18        -2.6650   -3.6420    0.4140 ha        1 338      0.141000
     27 H19        -0.3310   -2.7880    0.4430 ha        1 338      0.148000
     28 H23        -0.7450    2.0070   -0.1690 ha        1 338      0.155000
     29 H24        -2.6620    3.5410   -0.4420 ha        1 338      0.137000
     30 H25        -4.9950    2.6840   -0.4170 ha        1 338      0.136000
     31 H30         6.8670   -0.0010   -0.3720 ho        1 338      0.423000
     32 H31        -6.2850    0.7980   -0.2370 ho        1 338      0.424000
@<TRIPOS>BOND
     1    1    2 ar  
     2    1    6 ar  
     3    1   20 1   
     4    2    3 ar  
     5    2   22 1   
     6    3    4 ar  
     7    3    7 1   
     8    4    5 ar  
     9    4    9 1   
    10    5    6 ar  
    11    5   23 1   
    12    6   24 1   
    13    7    8 1   
    14    8    9 2   
    15    8   10 1   
    16   10   11 ar  
    17   10   15 ar  
    18   11   12 ar  
    19   11   16 ar  
    20   12   13 ar  
    21   12   19 ar  
    22   13   14 ar  
    23   13   25 1   
    24   14   15 ar  
    25   14   26 1   
    26   15   27 1   
    27   16   17 ar  
    28   16   28 1   
    29   17   18 ar  
    30   17   29 1   
    31   18   19 ar  
    32   18   30 1   
    33   19   21 1   
    34   20   31 1   
    35   21   32 1   
@<TRIPOS>SUBSTRUCTURE
     1 338         1 TEMP              0 ****  ****    0 ROOT
