@<TRIPOS>MOLECULE
338
   32    25     1     0     0
SMALL
bcc


@<TRIPOS>ATOM
      1 C1         -3.9010   -0.6200   -3.2030 c1        1 338      0.100000
      2 C2         -2.8850   -1.3030   -2.5530 c1        1 338     -0.087500
      3 C3         -1.9190   -0.5930   -1.8170 c1        1 338     -0.047500
      4 C4         -1.9810    0.7700   -1.7440 c1        1 338     -0.047500
      5 C5         -3.0130    1.4630   -2.4050 c1        1 338     -0.087500
      6 C6         -3.9650    0.7630   -3.1290 c1        1 338     -0.229000
      7 O10        -0.8360   -1.0030   -1.0990 o         1 338     -0.133000
      8 C11        -0.2290    0.1050   -0.5820 c2        1 338      0.086000
      9 N12        -0.9360    1.1980   -0.9800 n1        1 338     -0.114000
     10 C13         1.0040    0.0370    0.0470 c1        1 338     -0.038000
     11 C15         1.3310    0.0390    1.4160 c1        1 338      0.029000
     12 C16         2.6490    0.0200    1.8080 c1        1 338     -0.065000
     13 C17         3.6700   -0.0020    0.8390 c1        1 338     -0.132500
     14 C18         3.3460   -0.0050   -0.5120 c1        1 338     -0.132500
     15 C19         2.0130    0.0150   -0.9080 c1        1 338     -0.066000
     16 C23         0.3100    0.0460    2.3850 c1        1 338     -0.148000
     17 C24         0.6340    0.0330    3.7350 c1        1 338     -0.132500
     18 C25         1.9670    0.0130    4.1310 c1        1 338     -0.132500
     19 C26         2.9760    0.0060    3.1770 c1        1 338      0.097000
     20 O30        -4.8110   -1.3550   -3.9860 oh        1 338     -0.247000
     21 O31         4.2030    0.4740    3.6800 oh        1 338     -0.253000
     22 H2         -2.8410   -2.2770   -2.6050 ha        1 338      0.163000
     23 H5         -3.0580    2.4360   -2.3530 ha        1 338      0.163000
     24 H6         -4.6800    1.2440   -3.5880 ha        1 338      0.139000
     25 H17         4.6050   -0.0160    1.1160 ha        1 338      0.142000
     26 H18         4.0540   -0.0200   -1.1830 ha        1 338      0.142000
     27 H19         1.7850    0.0140   -1.8570 ha        1 338      0.148000
     28 H23        -0.6250    0.0600    2.1070 ha        1 338      0.155000
     29 H24        -0.0740    0.0370    4.4060 ha        1 338      0.142000
     30 H25         2.1940    0.0040    5.0800 ha        1 338      0.142000
     31 H30        -5.5920   -1.4070   -3.5640 ho        1 338      0.222000
     32 H31         4.6010   -0.1750    4.1400 ho        1 338      0.223000
@<TRIPOS>BOND
     1    1    6 1   
     2    1   20 1   
     3    2    3 1   
     4    2   22 1   
     5    4    5 1   
     6    5   23 1   
     7    6   24 1   
     8    7    8 1   
     9    8    9 1   
    10    8   10 1   
    11   10   15 1   
    12   11   12 1   
    13   11   16 1   
    14   12   19 1   
    15   13   14 1   
    16   13   25 1   
    17   14   26 1   
    18   15   27 1   
    19   16   28 1   
    20   17   18 1   
    21   17   29 1   
    22   18   30 1   
    23   19   21 1   
    24   20   31 1   
    25   21   32 1   
@<TRIPOS>SUBSTRUCTURE
     1 338         1 TEMP              0 ****  ****    0 ROOT
