@<TRIPOS>MOLECULE
338
   32    35     1     0     0
SMALL
bcc


@<TRIPOS>ATOM
      1 C1          0.0350    0.2340   -0.0560 ca        1 338      0.149100
      2 C2          1.4370    0.2040    0.0070 ca        1 338     -0.209000
      3 C3          1.9690    0.0960    1.2820 ca        1 338      0.074100
      4 C4          1.1690    0.0170    2.4730 ca        1 338      0.018400
      5 C5         -0.2250    0.0520    2.3640 ca        1 338     -0.032000
      6 C6         -0.7820    0.1610    1.0960 ca        1 338     -0.174000
      7 O10         3.3060    0.0440    1.6570 os        1 338     -0.312700
      8 C11         3.2660   -0.0720    3.0890 cc        1 338      0.588200
      9 N12         2.0340   -0.0830    3.5860 nd        1 338     -0.538100
     10 C13         4.5790   -0.0890    3.7200 ca        1 338     -0.120900
     11 C15         4.8930   -1.0070    4.7690 ca        1 338      0.029000
     12 C16         6.1830   -0.9210    5.3600 ca        1 338     -0.065000
     13 C17         7.1220    0.0370    4.8980 ca        1 338     -0.066000
     14 C18         6.7980    0.8880    3.8700 ca        1 338     -0.155000
     15 C19         5.5190    0.8250    3.2770 ca        1 338     -0.067000
     16 C23         3.9880   -2.0020    5.2310 ca        1 338     -0.148000
     17 C24         4.3370   -2.8560    6.2490 ca        1 338     -0.083000
     18 C25         5.6050   -2.7750    6.8620 ca        1 338     -0.226000
     19 C26         6.5080   -1.8260    6.4210 ca        1 338      0.142100
     20 O30        -0.6350    0.3390   -1.2520 oh        1 338     -0.492100
     21 O31         7.7670   -1.6880    6.9600 oh        1 338     -0.499100
     22 H2          2.0670    0.2610   -0.8870 ha        1 338      0.156000
     23 H5         -0.8620   -0.0040    3.2590 ha        1 338      0.156000
     24 H6         -1.8740    0.1920    0.9660 ha        1 338      0.157000
     25 H17         8.1120    0.0760    5.3820 ha        1 338      0.154000
     26 H18         7.5230    1.6280    3.5010 ha        1 338      0.141000
     27 H19         5.2710    1.5140    2.4530 ha        1 338      0.147000
     28 H23         2.9960   -2.0920    4.7650 ha        1 338      0.155000
     29 H24         3.6280   -3.6200    6.6010 ha        1 338      0.137000
     30 H25         5.8620   -3.4640    7.6780 ha        1 338      0.137000
     31 H30         0.0210    0.3790   -1.9630 ho        1 338      0.423000
     32 H31         7.8640   -2.3470    7.6640 ho        1 338      0.424000
@<TRIPOS>BOND
     1    1    2 ar  
     2    1    6 ar  
     3    1   20 1   
     4    2    3 ar  
     5    2   22 1   
     6    3    4 ar  
     7    3    7 1   
     8    4    5 ar  
     9    4    9 1   
    10    5    6 ar  
    11    5   23 1   
    12    6   24 1   
    13    7    8 1   
    14    8    9 2   
    15    8   10 1   
    16   10   11 ar  
    17   10   15 ar  
    18   11   12 ar  
    19   11   16 ar  
    20   12   13 ar  
    21   12   19 ar  
    22   13   14 ar  
    23   13   25 1   
    24   14   15 ar  
    25   14   26 1   
    26   15   27 1   
    27   16   17 ar  
    28   16   28 1   
    29   17   18 ar  
    30   17   29 1   
    31   18   19 ar  
    32   18   30 1   
    33   19   21 1   
    34   20   31 1   
    35   21   32 1   
@<TRIPOS>SUBSTRUCTURE
     1 338         1 TEMP              0 ****  ****    0 ROOT
