@<TRIPOS>MOLECULE
339
   91    92     1     0     0
SMALL
bcc


@<TRIPOS>ATOM
      1 CX         -6.4140    1.9520   -1.7740 c         1 339      0.483600
      2 CY         -5.5280    1.2300   -0.7480 c3        1 339      0.028700
      3 CZ         -7.6210    1.2360   -2.2340 cc        1 339      0.273900
      4 OX         -6.1410    3.0780   -2.2040 o         1 339     -0.529100
      5 N1         -4.1310    1.5330   -0.9490 n         1 339     -0.554900
      6 C2         -6.0360    1.6390    0.6470 c3        1 339     -0.083400
      7 C3         -5.3910    0.8140    1.7380 c3        1 339     -0.083400
      8 C4         -6.0300    1.1570    3.0860 c3        1 339      0.167800
      9 N5         -5.4000    0.4660    4.1930 n3        1 339     -0.848200
     10 C6         -6.0980    0.6720    5.4890 c3        1 339      0.608900
     11 N7         -7.3860   -0.0450    5.5860 n3        1 339     -0.931800
     12 N8         -5.2120    0.4420    6.6510 n3        1 339     -0.931800
     13 N9         -8.2180    0.2410   -1.5520 nd        1 339     -0.602000
     14 C10        -9.3110   -0.2040   -2.2550 cd        1 339      0.327200
     15 C11        -9.5340    0.4500   -3.4690 cc        1 339     -0.271400
     16 S12        -8.3930    1.6200   -3.7180 ss        1 339      0.045700
     17 N13        -0.8330    0.0830   -1.5340 n         1 339     -0.537900
     18 C14        -1.7940    1.1370   -1.7290 c3        1 339      0.036700
     19 C15        -3.2390    0.6260   -1.4760 c         1 339      0.637100
     20 O16        -3.5670   -0.5510   -1.7280 o         1 339     -0.619100
     21 C17        -1.7640    1.7480   -3.1510 c3        1 339     -0.067700
     22 C18        -0.5200    2.5870   -3.3370 c3        1 339     -0.098100
     23 C19        -1.8690    0.6950   -4.2330 c3        1 339     -0.098100
     24 N20         2.0450   -1.0260    0.4620 n         1 339     -0.521900
     25 C21         0.7950   -1.2820   -0.2200 c3        1 339      0.025700
     26 O23         0.0500    0.9620    0.3970 o         1 339     -0.614100
     27 C24        -0.1090   -2.2520    0.5610 c3        1 339     -0.078400
     28 C25         0.5000   -3.6310    0.6540 c3        1 339     -0.110400
     29 C26        -0.5000   -4.5950    1.2960 c3        1 339      0.069000
     30 N27        -0.0510   -5.9600    1.4190 n         1 339     -0.528900
     31 C28         0.6400   -6.3310    2.5960 c         1 339      0.725100
     32 N29         1.3740   -7.5270    2.6140 n         1 339     -0.645000
     33 O30         0.5960   -5.6250    3.6330 o         1 339     -0.636100
     34 O32         3.2520   -1.3430   -1.4980 o         1 339     -0.643100
     35 N33         4.3400   -0.2780    0.2460 n         1 339     -0.541900
     36 C34         5.6340   -0.4550   -0.3900 c3        1 339      0.140000
     37 C35         6.5600    0.6830   -0.0300 ca        1 339     -0.075300
     38 C36         6.9660    0.8880    1.2920 ca        1 339     -0.119000
     39 C37         7.8330    1.9320    1.6100 ca        1 339     -0.102500
     40 C38         8.3020    2.7810    0.6030 ca        1 339     -0.023900
     41 C39         7.8950    2.5820   -0.7200 ca        1 339     -0.102500
     42 C40         7.0240    1.5390   -1.0320 ca        1 339     -0.119000
     43 BR41        9.4700    4.1820    1.0250 br        1 339     -0.087100
     44 C42         6.3150   -1.7860   -0.0550 c3        1 339     -0.122100
     45 HY         -5.6580    0.1110   -0.8730 h1        1 339      0.123700
     46 HN1        -3.8600    2.4820   -0.8410 hn        1 339      0.322500
     47 H21A       -5.8400    2.7290    0.8220 hc        1 339      0.060700
     48 H22        -7.1480    1.4850    0.6660 hc        1 339      0.060700
     49 H31        -5.5270   -0.2770    1.5160 hc        1 339      0.054200
     50 H32        -4.2890    1.0160    1.7750 hc        1 339      0.054200
     51 H41        -5.9140    2.2630    3.2710 h1        1 339      0.039200
     52 H42        -7.1370    0.9430    3.0170 h1        1 339      0.039200
     53 HN5        -5.2950   -0.5090    3.9840 hn        1 339      0.354800
     54 H6         -6.3660    1.7810    5.5300 h3        1 339      0.076700
     55 HN71       -7.2580   -1.0360    5.6500 hn        1 339      0.355050
     56 HN72       -7.8890    0.2690    6.3930 hn        1 339      0.355050
     57 HN81       -4.8280   -0.4830    6.6530 hn        1 339      0.355050
     58 HN82       -4.4600    1.1020    6.6420 hn        1 339      0.355050
     59 H10        -9.9160   -1.0170   -1.8370 h4        1 339      0.051100
     60 H11       -10.3480    0.2180   -4.1540 h4        1 339      0.187000
     61 H13        -0.9730   -0.7380   -2.0800 hn        1 339      0.325500
     62 H14        -1.5490    1.9620   -0.9900 h1        1 339      0.103700
     63 H17        -2.6630    2.4250   -3.2220 hc        1 339      0.056700
     64 H181       -0.5370    3.0690   -4.3450 hc        1 339      0.043867
     65 H182       -0.4650    3.3890   -2.5610 hc        1 339      0.043867
     66 H183        0.4010    1.9600   -3.2630 hc        1 339      0.043867
     67 H191       -0.9060    0.1420   -4.3490 hc        1 339      0.043867
     68 H192       -2.6760   -0.0390   -3.9880 hc        1 339      0.043867
     69 H193       -2.1090    1.1790   -5.2100 hc        1 339      0.043867
     70 H20         1.9500   -0.4090    1.2430 hn        1 339      0.310500
     71 H21         1.0330   -1.7400   -1.2280 h1        1 339      0.109700
     72 H241       -0.3070   -1.8500    1.5890 hc        1 339      0.060700
     73 H242       -1.0930   -2.3080    0.0230 hc        1 339      0.060700
     74 H251        0.7830   -3.9910   -0.3700 hc        1 339      0.055200
     75 H252        1.4370   -3.5950    1.2690 hc        1 339      0.055200
     76 H261       -0.7740   -4.2110    2.3200 h1        1 339      0.070200
     77 H262       -1.4370   -4.6250    0.6660 h1        1 339      0.070200
     78 H27         0.2900   -6.3530    0.5690 hn        1 339      0.287500
     79 H291        1.1450   -8.2400    1.9650 hn        1 339      0.299000
     80 H292        1.6270   -7.8370    3.5240 hn        1 339      0.299000
     81 H33         4.3630   -0.1480    1.2320 hn        1 339      0.300500
     82 H34         5.4480   -0.4400   -1.5100 h1        1 339      0.095700
     83 H36         6.6070    0.2210    2.0910 ha        1 339      0.139000
     84 H37         8.1440    2.0810    2.6560 ha        1 339      0.148000
     85 H39         8.2550    3.2470   -1.5210 ha        1 339      0.148000
     86 H40         6.7020    1.3950   -2.0750 ha        1 339      0.139000
     87 H421        6.5070   -1.8810    1.0400 hc        1 339      0.047700
     88 H422        5.6730   -2.6380   -0.3860 hc        1 339      0.047700
     89 H423        7.2900   -1.8420   -0.5940 hc        1 339      0.047700
     90 C22        -0.0310    0.0180   -0.4140 c         1 339      0.628100
     91 C31         3.2170   -0.8970   -0.3240 c         1 339      0.745100
@<TRIPOS>BOND
     1    1    2 1   
     2    1    3 1   
     3    1    4 2   
     4    2    5 1   
     5    2    6 1   
     6    2   45 1   
     7    3   13 2   
     8    3   16 1   
     9    5   19 1   
    10    5   46 1   
    11    6    7 1   
    12    6   47 1   
    13    6   48 1   
    14    7    8 1   
    15    7   49 1   
    16    7   50 1   
    17    8    9 1   
    18    8   51 1   
    19    8   52 1   
    20    9   10 1   
    21    9   53 1   
    22   10   11 1   
    23   10   12 1   
    24   10   54 1   
    25   11   55 1   
    26   11   56 1   
    27   12   57 1   
    28   12   58 1   
    29   13   14 1   
    30   14   15 2   
    31   14   59 1   
    32   15   16 1   
    33   15   60 1   
    34   17   18 1   
    35   17   61 1   
    36   17   90 1   
    37   18   19 1   
    38   18   21 1   
    39   18   62 1   
    40   19   20 2   
    41   21   22 1   
    42   21   23 1   
    43   21   63 1   
    44   22   64 1   
    45   22   65 1   
    46   22   66 1   
    47   23   67 1   
    48   23   68 1   
    49   23   69 1   
    50   24   25 1   
    51   24   70 1   
    52   24   91 1   
    53   25   27 1   
    54   25   71 1   
    55   25   90 1   
    56   26   90 2   
    57   27   28 1   
    58   27   72 1   
    59   27   73 1   
    60   28   29 1   
    61   28   74 1   
    62   28   75 1   
    63   29   30 1   
    64   29   76 1   
    65   29   77 1   
    66   30   31 1   
    67   30   78 1   
    68   31   32 1   
    69   31   33 2   
    70   32   79 1   
    71   32   80 1   
    72   34   91 2   
    73   35   36 1   
    74   35   81 1   
    75   35   91 1   
    76   36   37 1   
    77   36   44 1   
    78   36   82 1   
    79   37   38 ar  
    80   37   42 ar  
    81   38   39 ar  
    82   38   83 1   
    83   39   40 ar  
    84   39   84 1   
    85   40   41 ar  
    86   40   43 1   
    87   41   42 ar  
    88   41   85 1   
    89   42   86 1   
    90   44   87 1   
    91   44   88 1   
    92   44   89 1   
@<TRIPOS>SUBSTRUCTURE
     1 339         1 TEMP              0 ****  ****    0 ROOT
