@<TRIPOS>MOLECULE
339
   91    87     1     0     0
SMALL
bcc


@<TRIPOS>ATOM
      1 CX         -4.4580    1.1900   -0.9960 c1        1 339      0.294000
      2 CY         -3.3940    0.1890   -1.3520 c2        1 339      0.001000
      3 CZ         -5.1000    2.0350   -2.0830 c2        1 339     -0.392000
      4 OX         -4.8380    1.2910    0.1580 o         1 339     -0.294000
      5 N1         -2.4600    0.0810   -0.2740 n         1 339     -0.367000
      6 C2         -4.0390   -1.1730   -1.6050 c3        1 339     -0.170000
      7 C3         -5.0320   -1.0610   -2.7780 c3        1 339     -0.197000
      8 C4         -6.0840   -2.1800   -2.6700 c3        1 339     -0.060000
      9 N5         -7.2350   -1.8350   -3.4630 n3        1 339     -0.328000
     10 C6         -8.3380   -2.6900   -3.1070 c3        1 339      0.094000
     11 N7         -8.5290   -3.6770   -4.1330 n3        1 339     -0.364500
     12 N8         -9.5310   -1.9020   -2.9720 n3        1 339     -0.364500
     13 N9         -5.4100    2.4570   -3.4150 n2        1 339     -0.071000
     14 C10        -6.7550    3.2690   -3.3790 c1        1 339     -0.141000
     15 C11        -7.2220    3.3120   -2.0120 c1        1 339     -0.478000
     16 S12        -6.2190    2.5500   -1.1490 ss        1 339      0.639000
     17 N13         0.4300    1.7020    1.0490 n         1 339     -0.357000
     18 C14        -0.8410    1.1610    1.4050 c3        1 339      0.012000
     19 C15        -1.7850    1.2670    0.2240 c2        1 339      0.282000
     20 O16        -1.9180    2.3300   -0.3550 o         1 339     -0.380000
     21 C17        -1.4140    1.9410    2.5880 c3        1 339     -0.109000
     22 C18        -2.9490    1.8090    2.5950 c3        1 339     -0.211500
     23 C19        -0.8460    1.3760    3.8980 c3        1 339     -0.211500
     24 N20         3.9580    0.9950    1.9460 n         1 339     -0.311000
     25 C21         3.0010    1.5640    1.0470 c3        1 339      0.012000
     26 C22         1.6400    0.9320    1.2870 c2        1 339      0.260000
     27 O23         1.5650   -0.1960    1.7430 o         1 339     -0.365000
     28 C24         3.4350    1.3060   -0.3850 c3        1 339     -0.161000
     29 C25         3.8860    2.6340   -1.0340 c3        1 339     -0.160000
     30 C26         4.8350    2.3340   -2.2110 c3        1 339     -0.037000
     31 N27         4.3950    3.0500   -3.3750 n         1 339     -0.362000
     32 C28         5.3220    3.3410   -4.4270 c2        1 339      0.364000
     33 N29         4.8550    3.4840   -5.7730 n         1 339     -0.408000
     34 O30         6.5010    3.5200   -4.1690 o         1 339     -0.402000
     35 C31         4.0760   -0.4430    2.0620 c2        1 339      0.377000
     36 O32         3.2700   -1.1670    1.5040 o         1 339     -0.392000
     37 N33         5.1560   -1.0230    2.8440 n         1 339     -0.353000
     38 C34         5.0340   -2.3500    3.3540 c3        1 339      0.052000
     39 C35         6.4130   -2.9750    3.4760 c2        1 339     -0.097000
     40 C36         6.7020   -4.1550    2.7990 c2        1 339     -0.111000
     41 C37         7.9280   -4.7860    2.9910 c1        1 339     -0.103000
     42 C38         8.8640   -4.2370    3.8610 c1        1 339     -0.164000
     43 C39         8.5760   -3.0570    4.5390 c1        1 339     -0.105000
     44 C40         7.3510   -2.4260    4.3470 c1        1 339     -0.127000
     45 BR41       10.5100   -5.1540    4.1960 br        1 339      0.053000
     46 C42         4.3750   -2.3090    4.7170 c3        1 339     -0.213000
     47 HY         -2.9240    0.4850   -2.1640 h4        1 339      0.167000
     48 HN1        -2.2720   -0.7410    0.0910 hn        1 339      0.243000
     49 H21A       -3.3430   -1.8290   -1.8270 hc        1 339      0.097000
     50 H22        -4.5180   -1.4630   -0.7980 hc        1 339      0.097000
     51 H31        -5.4780   -0.1880   -2.7470 hc        1 339      0.096000
     52 H32        -4.5450   -1.1490   -3.6290 hc        1 339      0.096000
     53 H41        -6.3530   -2.2880   -1.7310 h1        1 339      0.090000
     54 H42        -5.7000   -3.0240   -3.0000 h1        1 339      0.090000
     55 HN5        -7.4630   -0.9610   -3.3060 hn        1 339      0.155000
     56 H6         -8.1430   -3.1380   -2.2540 h3        1 339      0.117000
     57 HN71       -8.8200   -4.4610   -3.7540 hn        1 339      0.149500
     58 HN72       -9.1560   -3.3770   -4.7330 hn        1 339      0.149500
     59 HN81       -9.6370   -1.6540   -2.0940 hn        1 339      0.149500
     60 HN82      -10.2570   -2.3970   -3.2400 hn        1 339      0.149500
     61 H10        -7.2010    3.6750   -4.1510 DU        1 339      0.186000
     62 H11        -8.0380    3.7520   -1.6950 DU        1 339      0.186000
     63 H13         0.4870    2.5550    0.7150 hn        1 339      0.233000
     64 H14        -0.7350    0.2150    1.6570 h1        1 339      0.139000
     65 H17        -1.1670    2.8890    2.5050 hc        1 339      0.108000
     66 H181       -2.7130    0.9540    2.1800 hc        1 339      0.080500
     67 H182       -3.6060    1.7930    1.8650 hc        1 339      0.080500
     68 H183       -2.8640    2.7360    2.2760 hc        1 339      0.080500
     69 H191       -0.8720    2.0730    4.5940 hc        1 339      0.080500
     70 H192       -1.3870    0.6060    4.1850 hc        1 339      0.080500
     71 H193        0.0800    1.0900    3.7560 hc        1 339      0.080500
     72 H20         4.5150    1.5410    2.4270 hn        1 339      0.203000
     73 H21         2.9440    2.5320    1.2010 h1        1 339      0.115000
     74 H241        4.1820    0.6680   -0.3900 hc        1 339      0.105500
     75 H242        2.6800    0.9320   -0.8940 hc        1 339      0.105500
     76 H251        4.3550    3.1820   -0.3660 hc        1 339      0.099000
     77 H252        3.0980    3.1220   -1.3640 hc        1 339      0.099000
     78 H261        4.8310    1.3700   -2.3980 h1        1 339      0.101500
     79 H262        5.7470    2.6180   -1.9770 h1        1 339      0.101500
     80 H27         3.5070    3.2440   -3.4830 hn        1 339      0.207000
     81 H291        3.9540    3.4770   -5.9490 hn        1 339      0.213000
     82 H292        5.4540    3.6020   -6.4560 hn        1 339      0.213000
     83 H33         5.9320   -0.5500    2.9770 hn        1 339      0.209000
     84 H34         4.4860   -2.8860    2.7420 h1        1 339      0.141000
     85 H36         6.0430   -4.5420    2.1860 ha        1 339      0.148000
     86 H37         8.1320   -5.6190    2.5130 ha        1 339      0.150000
     87 H39         9.2360   -2.6710    5.1520 ha        1 339      0.146000
     88 H40         7.1480   -1.5950    4.8250 ha        1 339      0.133000
     89 H421        4.6360   -3.1070    5.2320 hc        1 339      0.085333
     90 H422        3.3990   -2.2930    4.6090 hc        1 339      0.085333
     91 H423        4.6640   -1.5010    5.1970 hc        1 339      0.085333
@<TRIPOS>BOND
     1    1    3 1   
     2    1    4 1   
     3    2    5 1   
     4    2    6 1   
     5    2   47 1   
     6    3   13 1   
     7    3   16 1   
     8    5   19 1   
     9    5   48 1   
    10    6    7 1   
    11    6   49 1   
    12    6   50 1   
    13    7    8 1   
    14    7   51 1   
    15    7   52 1   
    16    8    9 1   
    17    8   53 1   
    18    8   54 1   
    19    9   10 1   
    20    9   55 1   
    21   10   11 1   
    22   10   12 1   
    23   10   56 1   
    24   11   57 1   
    25   11   58 1   
    26   12   59 1   
    27   12   60 1   
    28   13   14 1   
    29   14   15 1   
    30   15   16 1   
    31   17   18 1   
    32   17   26 1   
    33   17   63 1   
    34   18   19 1   
    35   18   21 1   
    36   18   64 1   
    37   19   20 1   
    38   21   22 1   
    39   21   23 1   
    40   21   65 1   
    41   22   66 1   
    42   22   67 1   
    43   22   68 1   
    44   23   69 1   
    45   23   70 1   
    46   23   71 1   
    47   24   25 1   
    48   24   35 1   
    49   24   72 1   
    50   25   26 1   
    51   25   28 1   
    52   25   73 1   
    53   26   27 1   
    54   28   29 1   
    55   28   74 1   
    56   28   75 1   
    57   29   30 1   
    58   29   76 1   
    59   29   77 1   
    60   30   31 1   
    61   30   78 1   
    62   30   79 1   
    63   31   32 1   
    64   31   80 1   
    65   32   33 1   
    66   32   34 1   
    67   33   81 1   
    68   33   82 1   
    69   35   36 1   
    70   35   37 1   
    71   37   38 1   
    72   37   83 1   
    73   38   39 1   
    74   38   46 1   
    75   38   84 1   
    76   39   40 1   
    77   39   44 1   
    78   40   41 1   
    79   40   85 1   
    80   41   86 1   
    81   42   43 1   
    82   42   45 1   
    83   43   87 1   
    84   44   88 1   
    85   46   89 1   
    86   46   90 1   
    87   46   91 1   
@<TRIPOS>SUBSTRUCTURE
     1 339         1 TEMP              0 ****  ****    0 ROOT
