@<TRIPOS>MOLECULE
33A
   45    48     1     0     0
SMALL
bcc


@<TRIPOS>ATOM
      1 C2         -1.2850    0.0580    0.3280 ca        1 33A     -0.000600
      2 C3         -0.2440   -0.6500   -0.2810 ca        1 33A     -0.120000
      3 C4          0.7880   -1.1510    0.5100 ca        1 33A     -0.113000
      4 C5          0.7900   -0.9440    1.8880 ca        1 33A     -0.117000
      5 C6         -0.2560   -0.2360    2.5000 ca        1 33A      0.006000
      6 C7         -1.3080    0.2520    1.7110 ca        1 33A     -0.139000
      7 C8         -0.2570   -0.0360    3.9280 cc        1 33A     -0.198300
      8 CL1        -2.5470    0.6920   -0.6230 cl        1 33A     -0.104400
      9 C9          0.0350   -1.0170    4.8990 cd        1 33A     -0.113300
     10 N10        -0.1020   -0.3990    6.1380 na        1 33A      0.012400
     11 N12        -0.4460    0.8780    6.0410 nd        1 33A     -0.501800
     12 C13        -0.5560    1.1610    4.6990 cc        1 33A      0.369800
     13 C14        -0.9010    2.4660    4.2160 cc        1 33A     -0.163500
     14 C15        -1.5020    3.5000    5.0060 cd        1 33A     -0.018300
     15 N16        -1.6920    4.6050    4.2270 na        1 33A     -0.106100
     16 C18        -1.2270    4.3250    2.9240 cd        1 33A     -0.304900
     17 C19        -0.7220    2.9930    2.9150 cc        1 33A     -0.080000
     18 C20        -1.3150    5.2880    1.8680 c         1 33A      0.588700
     19 O21        -1.7370    6.4410    1.9130 o         1 33A     -0.468100
     20 N22        -0.8210    4.7870    0.5270 n4        1 33A     -0.666800
     21 C23        -0.9550    5.8030   -0.5700 c3        1 33A      0.178100
     22 C24        -0.4320    5.2630   -1.8550 ca        1 33A     -0.189300
     23 C25         0.8940    5.5130   -2.2300 ca        1 33A     -0.099500
     24 C26         1.3680    5.0430   -3.4540 ca        1 33A     -0.119500
     25 C27         0.5240    4.3250   -4.3030 ca        1 33A     -0.080000
     26 C28        -0.7980    4.0760   -3.9290 ca        1 33A     -0.119500
     27 C29        -1.2780    4.5440   -2.7080 ca        1 33A     -0.099500
     28 H3         -0.2450   -0.8200   -1.3690 ha        1 33A      0.157000
     29 H4          1.6070   -1.7190    0.0410 ha        1 33A      0.152000
     30 H5          1.6120   -1.3390    2.5040 ha        1 33A      0.148000
     31 H7         -2.1550    0.7670    2.1910 ha        1 33A      0.152000
     32 H9          0.3080   -2.0680    4.7900 h4        1 33A      0.196000
     33 HN10        0.0270   -0.8130    7.0350 hn        1 33A      0.340700
     34 H15        -1.7810    3.4670    6.0670 h4        1 33A      0.216000
     35 HN16       -2.0900    5.4730    4.5000 hn        1 33A      0.334700
     36 H19        -0.2750    2.4680    2.0720 ha        1 33A      0.170000
     37 HN22        0.1650    4.5180    0.6210 hn        1 33A      0.458800
     38 H231       -2.0490    6.0710   -0.6520 hx        1 33A      0.115700
     39 H232       -0.3910    6.7260   -0.2500 hx        1 33A      0.115700
     40 H25         1.5570    6.0950   -1.5720 ha        1 33A      0.139500
     41 H26         2.4090    5.2470   -3.7530 ha        1 33A      0.158000
     42 H27         0.9000    3.9590   -5.2720 ha        1 33A      0.159000
     43 H28        -1.4660    3.5170   -4.6040 ha        1 33A      0.158000
     44 H29        -2.3270    4.3620   -2.4260 ha        1 33A      0.139500
     45 H222       -1.3520    3.9440    0.2750 hn        1 33A      0.458800
@<TRIPOS>BOND
     1    1    2 ar  
     2    1    6 ar  
     3    1    8 1   
     4    2    3 ar  
     5    2   28 1   
     6    3    4 ar  
     7    3   29 1   
     8    4    5 ar  
     9    4   30 1   
    10    5    6 ar  
    11    5    7 1   
    12    6   31 1   
    13    7    9 2   
    14    7   12 1   
    15    9   10 1   
    16    9   32 1   
    17   10   11 1   
    18   10   33 1   
    19   11   12 2   
    20   12   13 1   
    21   13   14 2   
    22   13   17 1   
    23   14   15 1   
    24   14   34 1   
    25   15   16 1   
    26   15   35 1   
    27   16   17 2   
    28   16   18 1   
    29   17   36 1   
    30   18   19 2   
    31   18   20 1   
    32   20   21 1   
    33   20   37 1   
    34   20   45 1   
    35   21   22 1   
    36   21   38 1   
    37   21   39 1   
    38   22   23 ar  
    39   22   27 ar  
    40   23   24 ar  
    41   23   40 1   
    42   24   25 ar  
    43   24   41 1   
    44   25   26 ar  
    45   25   42 1   
    46   26   27 ar  
    47   26   43 1   
    48   27   44 1   
@<TRIPOS>SUBSTRUCTURE
     1 33A         1 TEMP              0 ****  ****    0 ROOT
