@<TRIPOS>MOLECULE
33A
   44    47     1     0     0
SMALL
bcc


@<TRIPOS>ATOM
      1 C2          9.3230   -2.2880   -2.1040 ca        1 33A      0.012400
      2 C3          9.9050   -3.5380   -2.3350 ca        1 33A     -0.130000
      3 C4          9.1880   -4.6900   -2.0140 ca        1 33A     -0.122000
      4 C5          7.9090   -4.5980   -1.4720 ca        1 33A     -0.129000
      5 C6          7.3230   -3.3440   -1.2400 ca        1 33A      0.017000
      6 C7          8.0400   -2.1820   -1.5620 ca        1 33A     -0.120000
      7 C8          5.9850   -3.2620   -0.7110 cc        1 33A     -0.207300
      8 CL1        10.1890   -0.8750   -2.4880 cl        1 33A     -0.093400
      9 C9          4.9050   -4.0800   -1.1020 cd        1 33A     -0.133300
     10 N10         3.7990   -3.6480   -0.3790 na        1 33A     -0.010600
     11 N12         4.0840   -2.6390    0.4420 nd        1 33A     -0.527800
     12 C13         5.4180   -2.3570    0.2830 cc        1 33A      0.424800
     13 C14         6.0850   -1.3320    1.0320 cc        1 33A     -0.215500
     14 C15         5.4440   -0.2410    1.6710 cd        1 33A     -0.092300
     15 N16         6.3990    0.5160    2.3120 na        1 33A     -0.134100
     16 C18         7.6560   -0.0690    2.1070 cd        1 33A     -0.202900
     17 C19         7.4840   -1.2200    1.3160 cc        1 33A     -0.118000
     18 C20         8.8760    0.5300    2.6840 c         1 33A      0.694700
     19 O21         8.8170    1.5600    3.3940 o         1 33A     -0.632100
     20 N22        10.0710   -0.1280    2.4490 n         1 33A     -0.540900
     21 C23        11.3310    0.4440    2.8450 c3        1 33A      0.129300
     22 C24        11.9920    1.3060    1.8060 ca        1 33A     -0.127300
     23 C25        13.1290    0.8590    1.1300 ca        1 33A     -0.114500
     24 C26        13.7500    1.6800    0.1880 ca        1 33A     -0.133000
     25 C27        13.2330    2.9470   -0.0830 ca        1 33A     -0.124000
     26 C28        12.0960    3.3950    0.5900 ca        1 33A     -0.133000
     27 C29        11.4750    2.5770    1.5330 ca        1 33A     -0.114500
     28 H3         10.9150   -3.6140   -2.7640 ha        1 33A      0.146000
     29 H4          9.6390   -5.6780   -2.1910 ha        1 33A      0.137000
     30 H5          7.3510   -5.5120   -1.2180 ha        1 33A      0.135000
     31 H7          7.5850   -1.1950   -1.3830 ha        1 33A      0.161000
     32 H9          4.8580   -4.8960   -1.8230 h4        1 33A      0.179000
     33 HN10        2.8760   -4.0110   -0.4180 hn        1 33A      0.323700
     34 H15         4.3830    0.0160    1.6940 h4        1 33A      0.184000
     35 HN16        6.2570    1.3360    2.8480 hn        1 33A      0.318700
     36 H19         8.2570   -1.9080    0.9830 ha        1 33A      0.163000
     37 HN22       10.0960   -0.7930    1.7100 hn        1 33A      0.311500
     38 H231       12.0160   -0.4140    3.1110 h1        1 33A      0.070200
     39 H232       11.1620    1.0650    3.7740 h1        1 33A      0.070200
     40 H25        13.5400   -0.1400    1.3400 ha        1 33A      0.141000
     41 H26        14.6460    1.3270   -0.3410 ha        1 33A      0.132000
     42 H27        13.7230    3.5930   -0.8260 ha        1 33A      0.131000
     43 H28        11.6880    4.3940    0.3780 ha        1 33A      0.132000
     44 H29        10.5770    2.9220    2.0710 ha        1 33A      0.141000
@<TRIPOS>BOND
     1    1    2 ar  
     2    1    6 ar  
     3    1    8 1   
     4    2    3 ar  
     5    2   28 1   
     6    3    4 ar  
     7    3   29 1   
     8    4    5 ar  
     9    4   30 1   
    10    5    6 ar  
    11    5    7 1   
    12    6   31 1   
    13    7    9 2   
    14    7   12 1   
    15    9   10 1   
    16    9   32 1   
    17   10   11 1   
    18   10   33 1   
    19   11   12 2   
    20   12   13 1   
    21   13   14 2   
    22   13   17 1   
    23   14   15 1   
    24   14   34 1   
    25   15   16 1   
    26   15   35 1   
    27   16   17 2   
    28   16   18 1   
    29   17   36 1   
    30   18   19 2   
    31   18   20 1   
    32   20   21 1   
    33   20   37 1   
    34   21   22 1   
    35   21   38 1   
    36   21   39 1   
    37   22   23 ar  
    38   22   27 ar  
    39   23   24 ar  
    40   23   40 1   
    41   24   25 ar  
    42   24   41 1   
    43   25   26 ar  
    44   25   42 1   
    45   26   27 ar  
    46   26   43 1   
    47   27   44 1   
@<TRIPOS>SUBSTRUCTURE
     1 33A         1 TEMP              0 ****  ****    0 ROOT
