@<TRIPOS>MOLECULE
33A
   44    35     1     0     0
SMALL
bcc


@<TRIPOS>ATOM
      1 C2         -3.9730   -2.9180    2.9020 c1        1 33A     -0.064000
      2 C3         -3.3530   -3.3210    4.0730 c2        1 33A     -0.130000
      3 C4         -2.1070   -3.9280    4.0250 c1        1 33A     -0.121000
      4 C5         -1.4830   -4.1320    2.8060 c1        1 33A     -0.130000
      5 C6         -2.1030   -3.7280    1.6320 c1        1 33A      0.017000
      6 C7         -3.3470   -3.1220    1.6800 c1        1 33A     -0.124000
      7 C8         -1.4400   -3.8640    0.4100 c1        1 33A     -0.149000
      8 CL1        -5.5740   -2.2290    2.9570 cl        1 33A     -0.019000
      9 C9         -1.5100   -5.1380   -0.0820 c1        1 33A     -0.108000
     10 N10        -0.8470   -5.1670   -1.2600 n2        1 33A     -0.155000
     11 N12        -0.3590   -3.9050   -1.5050 n2        1 33A     -0.080000
     12 C13        -0.7250   -3.1070   -0.4780 c2        1 33A     -0.014000
     13 C14        -0.4540   -1.7310   -0.3620 c2        1 33A     -0.108000
     14 C15         0.0960   -1.1010    0.7390 c1        1 33A     -0.081000
     15 N16         0.2290    0.2280    0.4440 n2        1 33A     -0.157000
     16 C18        -0.2320    0.4270   -0.8270 c1        1 33A     -0.167000
     17 C19        -0.6550   -0.7910   -1.3250 c1        1 33A     -0.074000
     18 C20        -0.2610    1.7610   -1.5720 c1        1 33A      0.361000
     19 O21        -0.6950    1.8130   -2.6990 o         1 33A     -0.349000
     20 N22         0.2920    2.9310   -0.9650 n3        1 33A     -0.359000
     21 C23         0.5910    4.0910   -1.7730 c3        1 33A     -0.005000
     22 C24         2.0640    4.4430   -1.6300 c2        1 33A     -0.124000
     23 C25         2.4470    5.5130   -0.8380 c2        1 33A     -0.121000
     24 C26         3.7840    5.8710   -0.7570 c1        1 33A     -0.135000
     25 C27         4.7340    5.1610   -1.4660 c1        1 33A     -0.127000
     26 C28         4.3510    4.0920   -2.2580 c1        1 33A     -0.127000
     27 C29         3.0140    3.7340   -2.3390 c1        1 33A     -0.111000
     28 H3         -3.7940   -3.1770    4.9340 ha        1 33A      0.147000
     29 H4         -1.6690   -4.2130    4.8530 ha        1 33A      0.137000
     30 H5         -0.6090   -4.5570    2.7730 ha        1 33A      0.136000
     31 H7         -3.7850   -2.8380    0.8530 ha        1 33A      0.162000
     32 H9         -1.9610   -5.8930    0.3420 DU        1 33A      0.213800
     33 HN10       -0.7420   -5.8980   -1.7980 DU        1 33A      0.213800
     34 H15         0.3460   -1.5310    1.5820 DU        1 33A      0.213800
     35 HN16        0.5670    0.8710    1.0000 DU        1 33A      0.213800
     36 H19        -1.0330   -0.9490   -2.2110 DU        1 33A      0.213800
     37 HN22        0.4900    2.9320   -0.0760 hn        1 33A      0.208000
     38 H231        0.0420    4.8490   -1.4730 h1        1 33A      0.110500
     39 H232        0.3920    3.8950   -2.7110 h1        1 33A      0.110500
     40 H25         1.7820    6.0090   -0.3420 ha        1 33A      0.128000
     41 H26         4.0550    6.6270   -0.1970 ha        1 33A      0.131000
     42 H27         5.6690    5.4120   -1.4090 ha        1 33A      0.133000
     43 H28         5.0200    3.5920   -2.7580 ha        1 33A      0.133000
     44 H29         2.7460    2.9840   -2.8950 ha        1 33A      0.156000
@<TRIPOS>BOND
     1    1    2 1   
     2    1    6 1   
     3    2    3 1   
     4    2   28 1   
     5    3   29 1   
     6    4    5 1   
     7    4   30 1   
     8    6   31 1   
     9    7    9 1   
    10    7   12 1   
    11    9   10 1   
    12   10   11 1   
    13   11   12 1   
    14   12   13 1   
    15   13   14 1   
    16   13   17 1   
    17   14   15 1   
    18   15   16 1   
    19   16   17 1   
    20   18   19 1   
    21   18   20 1   
    22   20   21 1   
    23   20   37 1   
    24   21   22 1   
    25   21   38 1   
    26   21   39 1   
    27   22   23 1   
    28   22   27 1   
    29   23   24 1   
    30   23   40 1   
    31   24   41 1   
    32   25   26 1   
    33   25   42 1   
    34   26   43 1   
    35   27   44 1   
@<TRIPOS>SUBSTRUCTURE
     1 33A         1 TEMP              0 ****  ****    0 ROOT
