@<TRIPOS>MOLECULE
33A
   45    48     1     0     0
SMALL
bcc


@<TRIPOS>ATOM
      1 C2         -1.2450    0.0470    0.3280 ca        1 33A     -0.000600
      2 C3         -0.1950   -0.6470   -0.2800 ca        1 33A     -0.120000
      3 C4          0.8430   -1.1350    0.5130 ca        1 33A     -0.113000
      4 C5          0.8400   -0.9280    1.8910 ca        1 33A     -0.117000
      5 C6         -0.2150   -0.2320    2.5020 ca        1 33A      0.006000
      6 C7         -1.2720    0.2420    1.7110 ca        1 33A     -0.139000
      7 C8         -0.2200   -0.0320    3.9290 cc        1 33A     -0.198300
      8 CL1        -2.5140    0.6650   -0.6240 cl        1 33A     -0.104400
      9 C9          0.0840   -1.0090    4.9010 cd        1 33A     -0.113300
     10 N10        -0.0630   -0.3920    6.1400 na        1 33A      0.012400
     11 N12        -0.4240    0.8800    6.0420 nd        1 33A     -0.501800
     12 C13        -0.5350    1.1620    4.7000 cc        1 33A      0.369800
     13 C14        -0.8970    2.4620    4.2160 cc        1 33A     -0.163500
     14 C15        -1.5130    3.4870    5.0050 cd        1 33A     -0.018300
     15 N16        -1.7160    4.5900    4.2260 na        1 33A     -0.106100
     16 C18        -1.2450    4.3160    2.9230 cd        1 33A     -0.304900
     17 C19        -0.7230    2.9900    2.9160 cc        1 33A     -0.080000
     18 C20        -1.3440    5.2780    1.8670 c         1 33A      0.588700
     19 O21        -1.7800    6.4260    1.9110 o         1 33A     -0.468100
     20 N22        -0.8400    4.7840    0.5270 n4        1 33A     -0.666800
     21 C23        -1.0020    5.7910   -0.5740 c3        1 33A      0.178100
     22 C24        -0.4650    5.2600   -1.8570 ca        1 33A     -0.189300
     23 C25         0.8500    5.5500   -2.2390 ca        1 33A     -0.099500
     24 C26         1.3360    5.0880   -3.4610 ca        1 33A     -0.119500
     25 C27         0.5120    4.3380   -4.3020 ca        1 33A     -0.080000
     26 C28        -0.8000    4.0490   -3.9230 ca        1 33A     -0.119500
     27 C29        -1.2910    4.5090   -2.7030 ca        1 33A     -0.099500
     28 H3         -0.1920   -0.8190   -1.3670 ha        1 33A      0.157000
     29 H4          1.6690   -1.6940    0.0450 ha        1 33A      0.152000
     30 H5          1.6670   -1.3120    2.5080 ha        1 33A      0.148000
     31 H7         -2.1260    0.7470    2.1900 ha        1 33A      0.152000
     32 H9          0.3700   -2.0560    4.7920 h4        1 33A      0.196000
     33 HN10        0.0700   -0.8050    7.0370 hn        1 33A      0.340700
     34 H15        -1.7940    3.4510    6.0650 h4        1 33A      0.216000
     35 HN16       -2.1250    5.4520    4.4970 hn        1 33A      0.334700
     36 H19        -0.2680    2.4710    2.0730 ha        1 33A      0.170000
     37 HN22       -1.3500    3.9270    0.2800 hn        1 33A      0.458800
     38 H231       -2.1020    6.0300   -0.6550 hx        1 33A      0.115700
     39 H232       -0.4610    6.7300   -0.2580 hx        1 33A      0.115700
     40 H25         1.4980    6.1570   -1.5870 ha        1 33A      0.139500
     41 H26         2.3680    5.3230   -3.7650 ha        1 33A      0.158000
     42 H27         0.8970    3.9780   -5.2710 ha        1 33A      0.159000
     43 H28        -1.4520    3.4640   -4.5910 ha        1 33A      0.158000
     44 H29        -2.3320    4.2950   -2.4160 ha        1 33A      0.139500
     45 H222        0.1520    4.5400    0.6200 hn        1 33A      0.458800
@<TRIPOS>BOND
     1    1    2 ar  
     2    1    6 ar  
     3    1    8 1   
     4    2    3 ar  
     5    2   28 1   
     6    3    4 ar  
     7    3   29 1   
     8    4    5 ar  
     9    4   30 1   
    10    5    6 ar  
    11    5    7 1   
    12    6   31 1   
    13    7    9 2   
    14    7   12 1   
    15    9   10 1   
    16    9   32 1   
    17   10   11 1   
    18   10   33 1   
    19   11   12 2   
    20   12   13 1   
    21   13   14 2   
    22   13   17 1   
    23   14   15 1   
    24   14   34 1   
    25   15   16 1   
    26   15   35 1   
    27   16   17 2   
    28   16   18 1   
    29   17   36 1   
    30   18   19 2   
    31   18   20 1   
    32   20   21 1   
    33   20   37 1   
    34   20   45 1   
    35   21   22 1   
    36   21   38 1   
    37   21   39 1   
    38   22   23 ar  
    39   22   27 ar  
    40   23   24 ar  
    41   23   40 1   
    42   24   25 ar  
    43   24   41 1   
    44   25   26 ar  
    45   25   42 1   
    46   26   27 ar  
    47   26   43 1   
    48   27   44 1   
@<TRIPOS>SUBSTRUCTURE
     1 33A         1 TEMP              0 ****  ****    0 ROOT
