@<TRIPOS>MOLECULE
33A
   45    48     1     0     0
SMALL
bcc


@<TRIPOS>ATOM
      1 C2         -1.2830    0.0560    0.3370 ca        1 33A     -0.000600
      2 C3         -0.2460   -0.6520   -0.2750 ca        1 33A     -0.120000
      3 C4          0.7900   -1.1520    0.5130 ca        1 33A     -0.113000
      4 C5          0.7970   -0.9420    1.8900 ca        1 33A     -0.117000
      5 C6         -0.2470   -0.2330    2.5050 ca        1 33A      0.006000
      6 C7         -1.3020    0.2540    1.7190 ca        1 33A     -0.139000
      7 C8         -0.2410   -0.0310    3.9330 cc        1 33A     -0.198300
      8 Cl1        -2.5500    0.6890   -0.6110 cl        1 33A     -0.104400
      9 C9          0.0530   -1.0100    4.9040 cd        1 33A     -0.113300
     10 N10        -0.0790   -0.3890    6.1430 na        1 33A      0.012400
     11 N12        -0.4220    0.8880    6.0450 nd        1 33A     -0.501800
     12 C13        -0.5360    1.1690    4.7030 cc        1 33A      0.369800
     13 C14        -0.8820    2.4730    4.2180 cc        1 33A     -0.163500
     14 C15        -1.4780    3.5090    5.0100 cd        1 33A     -0.018300
     15 N16        -1.6710    4.6130    4.2290 na        1 33A     -0.106100
     16 C18        -1.2120    4.3300    2.9240 cd        1 33A     -0.304900
     17 C19        -0.7080    2.9970    2.9160 cc        1 33A     -0.080000
     18 C20        -1.3030    5.2910    1.8670 c         1 33A      0.588700
     19 O21        -1.7220    6.4450    1.9110 o         1 33A     -0.468100
     20 N22        -0.8160    4.7860    0.5240 ny        1 33A     -0.666800
     21 C23        -0.9580    5.7980   -0.5750 c3        1 33A      0.178100
     22 C24        -0.4410    5.2550   -1.8610 ca        1 33A     -0.189300
     23 C25         0.8810    5.5090   -2.2460 ca        1 33A     -0.099500
     24 C26         1.3490    5.0360   -3.4710 ca        1 33A     -0.119500
     25 C27         0.5020    4.3110   -4.3120 ca        1 33A     -0.080000
     26 C28        -0.8170    4.0590   -3.9290 ca        1 33A     -0.119500
     27 C29        -1.2900    4.5300   -2.7050 ca        1 33A     -0.099500
     28 H3         -0.2500   -0.8250   -1.3630 ha        1 33A      0.157000
     29 H4          1.6070   -1.7220    0.0410 ha        1 33A      0.152000
     30 H5          1.6220   -1.3370    2.5040 ha        1 33A      0.148000
     31 H7         -2.1460    0.7700    2.2010 ha        1 33A      0.152000
     32 H9          0.3250   -2.0610    4.7960 h4        1 33A      0.196000
     33 HN10        0.0530   -0.8020    7.0410 hn        1 33A      0.340700
     34 H15        -1.7530    3.4790    6.0720 h4        1 33A      0.216000
     35 HN16       -2.0650    5.4820    4.5010 hn        1 33A      0.334700
     36 H19        -0.2660    2.4690    2.0720 ha        1 33A      0.170000
     37 HN22       -1.3460    3.9420    0.2780 hn        1 33A      0.458800
     38 H231       -2.0520    6.0640   -0.6510 hx        1 33A      0.115700
     39 H232       -0.3930    6.7240   -0.2610 hx        1 33A      0.115700
     40 H25         1.5470    6.0960   -1.5950 ha        1 33A      0.139500
     41 H26         2.3870    5.2420   -3.7790 ha        1 33A      0.158000
     42 H27         0.8730    3.9430   -5.2820 ha        1 33A      0.159000
     43 H28        -1.4870    3.4940   -4.5960 ha        1 33A      0.158000
     44 H29        -2.3360    4.3450   -2.4160 ha        1 33A      0.139500
     45 H222        0.1710    4.5190    0.6140 hn        1 33A      0.458800
@<TRIPOS>BOND
     1    1    2 ar  
     2    1    6 ar  
     3    1    8 1   
     4    2    3 ar  
     5    2   28 1   
     6    3    4 ar  
     7    3   29 1   
     8    4    5 ar  
     9    4   30 1   
    10    5    6 ar  
    11    5    7 1   
    12    6   31 1   
    13    7    9 2   
    14    7   12 1   
    15    9   10 1   
    16    9   32 1   
    17   10   11 1   
    18   10   33 1   
    19   11   12 2   
    20   12   13 1   
    21   13   14 2   
    22   13   17 1   
    23   14   15 1   
    24   14   34 1   
    25   15   16 1   
    26   15   35 1   
    27   16   17 2   
    28   16   18 1   
    29   17   36 1   
    30   18   19 2   
    31   18   20 1   
    32   20   21 1   
    33   20   37 1   
    34   20   45 1   
    35   21   22 1   
    36   21   38 1   
    37   21   39 1   
    38   22   23 ar  
    39   22   27 ar  
    40   23   24 ar  
    41   23   40 1   
    42   24   25 ar  
    43   24   41 1   
    44   25   26 ar  
    45   25   42 1   
    46   26   27 ar  
    47   26   43 1   
    48   27   44 1   
@<TRIPOS>SUBSTRUCTURE
     1 33A         1 TEMP              0 ****  ****    0 ROOT
