@<TRIPOS>MOLECULE
33B
   44    43     1     0     0
SMALL
bcc


@<TRIPOS>ATOM
      1 C1         -0.5820    0.1520    0.0210 c3        1 33B     -0.157000
      2 C2          0.8880    0.3360    0.3900 c2        1 33B      0.297000
      3 O2          1.1500    0.7250    1.5470 o         1 33B     -0.368000
      4 N3          1.8060    0.1020   -0.5990 ns        1 33B     -0.292000
      5 C4          3.2080    0.2730   -0.5370 ca        1 33B      0.014000
      6 C5          3.8930    0.6580    0.6280 ca        1 33B     -0.141000
      7 C6          3.9540    0.0480   -1.7170 ca        1 33B     -0.105000
      8 S6          6.1290   -0.1290   -3.3420 s6        1 33B      2.885000
      9 C7          5.2740    0.8150    0.5960 ca        1 33B     -0.132000
     10 C8          5.3330    0.1970   -1.7570 ca        1 33B     -0.631000
     11 C9          6.0100    0.5880   -0.5840 ca        1 33B      0.033000
     12 N10         7.4490    0.6530   -0.6320 n2        1 33B     -0.038000
     13 N11         8.0130    1.4580    0.1190 n2        1 33B      0.023000
     14 C12         9.3720    1.5340    0.1750 c1        1 33B     -0.148000
     15 C13         8.9160   -3.4710   -2.1160 c2        1 33B     -0.536000
     16 C14        10.5440    1.7310    0.3780 c1        1 33B     -0.012000
     17 C15         8.9400   -4.7340   -2.3880 c1        1 33B      0.041000
     18 C16        11.9060    1.9480    0.6140 c2        1 33B     -0.691000
     19 C17        12.7700    1.5850   -0.3760 c2        1 33B      0.087000
     20 S17        12.2970    2.6940    2.1920 s6        1 33B      2.879000
     21 N18        14.1540    1.7030   -0.3000 ns        1 33B     -0.307000
     22 C19        14.9870    1.5110   -1.3780 c2        1 33B      0.294000
     23 O19        14.5970    1.1620   -2.5110 o         1 33B     -0.367000
     24 C20        16.4710    1.7670   -1.1460 c3        1 33B     -0.148000
     25 O61         5.0300   -0.3100   -4.2230 o         1 33B     -1.066000
     26 O62         6.8860    1.0140   -3.6390 o         1 33B     -1.066000
     27 O63         6.8600   -1.3210   -3.1600 o         1 33B     -1.066000
     28 O71        11.7150    3.9750    2.1740 o         1 33B     -1.066667
     29 O72        11.7920    1.8250    3.1760 o         1 33B     -1.066667
     30 O73        13.7250    2.7570    2.2050 o         1 33B     -1.066667
     31 HN3         1.4670   -0.2420   -1.4720 hn        1 33B      0.238000
     32 H5          5.7840    1.1210    1.5230 ha        1 33B      0.143000
     33 H7          3.3510    0.8420    1.5690 ha        1 33B      0.151000
     34 H8          3.4450   -0.2530   -2.6540 ha        1 33B      0.163000
     35 Cl1        -0.9210   -1.3490   -0.8100 cl        1 33B     -0.107000
     36 H1         -0.9090    0.9840   -0.6490 h1        1 33B      0.125000
     37 H13         8.1300   -2.7920   -2.5530 ha        1 33B      0.243500
     38 H14         9.5900   -2.8880   -1.4750 ha        1 33B      0.243500
     39 H15        12.4090    1.1640   -1.3390 h4        1 33B      0.153000
     40 HN18       14.5530    2.0120    0.5760 hn        1 33B      0.294000
     41 Cl2        17.1950    0.5150   -0.1630 cl        1 33B     -0.100000
     42 H20        16.6390    2.7390   -0.6230 h1        1 33B      0.123500
     43 H1A        -1.1860    0.1540    0.9600 h1        1 33B      0.125000
     44 H20A       16.9940    1.7580   -2.1320 h1        1 33B      0.123500
@<TRIPOS>BOND
     1    1    2 1   
     2    1   35 1   
     3    1   36 1   
     4    1   43 1   
     5    2    3 1   
     6    2    4 1   
     7    4    5 1   
     8    4   31 1   
     9    5    6 1   
    10    5    7 1   
    11    6    9 1   
    12    6   33 1   
    13    7   10 1   
    14    7   34 1   
    15    8   10 1   
    16    8   25 1   
    17    8   26 1   
    18    8   27 1   
    19    9   11 1   
    20    9   32 1   
    21   10   11 1   
    22   11   12 1   
    23   12   13 1   
    24   13   14 1   
    25   14   16 1   
    26   15   17 1   
    27   15   37 1   
    28   15   38 1   
    29   16   18 1   
    30   18   19 1   
    31   18   20 1   
    32   19   21 1   
    33   19   39 1   
    34   20   28 1   
    35   20   29 1   
    36   20   30 1   
    37   21   22 1   
    38   21   40 1   
    39   22   23 1   
    40   22   24 1   
    41   24   41 1   
    42   24   42 1   
    43   24   44 1   
@<TRIPOS>SUBSTRUCTURE
     1 33B         1 TEMP              0 ****  ****    0 ROOT
