@<TRIPOS>MOLECULE
33B
   44    45     1     0     0
SMALL
bcc


@<TRIPOS>ATOM
      1 C1          8.2650    1.1630    0.4410 c3        1 33B     -0.047000
      2 C2          6.7500    1.3380    0.4950 c         1 33B      0.662100
      3 O2          6.2830    2.3640    1.0310 o         1 33B     -0.617100
      4 N3          6.0080    0.3250   -0.0610 n         1 33B     -0.450100
      5 C4          4.6110    0.1730    0.0310 ca        1 33B      0.154600
      6 C5          3.7510    1.2870    0.1220 ca        1 33B     -0.190000
      7 C6          4.0640   -1.1330   -0.0020 ca        1 33B     -0.317500
      8 S6          5.0730   -2.5930   -0.0070 s6        1 33B      1.458100
      9 C7          2.3750    1.1120    0.1430 ca        1 33B     -0.077000
     10 C8          2.6830   -1.2840    0.0110 ca        1 33B      0.009000
     11 C9          1.8100   -0.1760    0.0760 ca        1 33B      0.043400
     12 N10         0.4050   -0.4670    0.0800 ne        1 33B     -0.216400
     13 N11        -0.4120    0.4560    0.0770 nf        1 33B     -0.216400
     14 C12        -1.8160    0.1650    0.0810 ca        1 33B      0.043400
     15 C13        -2.3810   -1.1220    0.1630 ca        1 33B     -0.077000
     16 C14        -2.6900    1.2730    0.0070 ca        1 33B      0.009000
     17 C15        -3.7570   -1.2980    0.1480 ca        1 33B     -0.190000
     18 C16        -4.0710    1.1220    0.0010 ca        1 33B     -0.317500
     19 C17        -4.6170   -0.1840    0.0490 ca        1 33B      0.154600
     20 S17        -5.0800    2.5820   -0.0150 s6        1 33B      1.458100
     21 N18        -6.0150   -0.3370   -0.0360 n         1 33B     -0.450100
     22 C19        -6.7550   -1.3440    0.5320 c         1 33B      0.662100
     23 O19        -6.2860   -2.3650    1.0770 o         1 33B     -0.617100
     24 C20        -8.2710   -1.1700    0.4820 c3        1 33B     -0.047000
     25 O61         6.0190   -2.3660   -1.0490 o         1 33B     -0.745200
     26 O62         5.7090   -2.6030    1.2560 o         1 33B     -0.745200
     27 O63         4.2010   -3.6760   -0.2370 o         1 33B     -0.745200
     28 O71        -5.7110    2.6040    1.2500 o         1 33B     -0.745200
     29 O72        -4.2090    3.6620   -0.2590 o         1 33B     -0.745200
     30 O73        -6.0290    2.3440   -1.0520 o         1 33B     -0.745200
     31 HN3         6.5060   -0.4590   -0.4570 hn        1 33B      0.370500
     32 H5          4.1670    2.3050    0.1860 ha        1 33B      0.150000
     33 H7          1.7300    2.0040    0.2120 ha        1 33B      0.141000
     34 H8          2.2730   -2.3120   -0.0310 ha        1 33B      0.170000
     35 CL1         8.8860    1.4470   -1.1710 cl        1 33B     -0.182400
     36 H1          8.7360    1.9200    1.1130 h1        1 33B      0.087200
     37 H13        -1.7360   -2.0130    0.2380 ha        1 33B      0.141000
     38 H14        -2.2800    2.3010   -0.0470 ha        1 33B      0.170000
     39 H15        -4.1730   -2.3150    0.2240 ha        1 33B      0.150000
     40 HN18       -6.5140    0.4430   -0.4390 hn        1 33B      0.370500
     41 CL2        -8.8970   -1.4700   -1.1250 cl        1 33B     -0.182400
     42 H20        -8.7390   -1.9200    1.1640 h1        1 33B      0.087200
     43 H1A         8.5720    0.1310    0.7400 h1        1 33B      0.087200
     44 H20A       -8.5750   -0.1350    0.7710 h1        1 33B      0.087200
@<TRIPOS>BOND
     1    1    2 1   
     2    1   35 1   
     3    1   36 1   
     4    1   43 1   
     5    2    3 2   
     6    2    4 1   
     7    4    5 1   
     8    4   31 1   
     9    5    6 ar  
    10    5    7 ar  
    11    6    9 ar  
    12    6   32 1   
    13    7    8 1   
    14    7   10 ar  
    15    8   25 1   
    16    8   26 1   
    17    8   27 1   
    18    9   11 ar  
    19    9   33 1   
    20   10   11 ar  
    21   10   34 1   
    22   11   12 1   
    23   12   13 2   
    24   13   14 1   
    25   14   15 ar  
    26   14   16 ar  
    27   15   17 ar  
    28   15   37 1   
    29   16   18 ar  
    30   16   38 1   
    31   17   19 ar  
    32   17   39 1   
    33   18   19 ar  
    34   18   20 1   
    35   19   21 1   
    36   20   28 1   
    37   20   29 1   
    38   20   30 1   
    39   21   22 1   
    40   21   40 1   
    41   22   23 2   
    42   22   24 1   
    43   24   41 1   
    44   24   42 1   
    45   24   44 1   
@<TRIPOS>SUBSTRUCTURE
     1 33B         1 TEMP              0 ****  ****    0 ROOT
