@<TRIPOS>MOLECULE
33B
   44    38     1     0     0
SMALL
bcc


@<TRIPOS>ATOM
      1 C1         -4.8420   -0.4410   -1.3360 c3        1 33B     -0.150000
      2 C2         -3.3470   -0.3820   -1.5770 c2        1 33B      0.306000
      3 O2         -2.7640    0.6810   -1.5170 o         1 33B     -0.376000
      4 N3         -2.6160   -1.5810   -1.7990 n         1 33B     -0.307000
      5 C4         -1.2020   -1.5340   -1.9510 c2        1 33B      0.159000
      6 C5         -0.5730   -0.3260   -2.2080 c1        1 33B     -0.178000
      7 C6         -0.4490   -2.6850   -1.7840 c2        1 33B     -0.757000
      8 S6         -1.2540   -4.2360   -1.4760 s4        1 33B      2.087800
      9 C7          0.8100   -0.2690   -2.2970 c2        1 33B     -0.090000
     10 C8          0.9340   -2.6290   -1.8730 c1        1 33B      0.006000
     11 C9          1.5630   -1.4210   -2.1300 c1        1 33B     -0.156000
     12 N10         2.9790   -1.3650   -2.2370 n2        1 33B     -0.013000
     13 N11         3.6360   -0.7060   -1.4210 n1        1 33B     -0.013000
     14 C12         2.9760   -0.0070   -0.3800 c1        1 33B     -0.156000
     15 C13         2.1360   -0.6870    0.4870 c2        1 33B     -0.090000
     16 C14         3.1750    1.3570   -0.2260 c1        1 33B      0.006000
     17 C15         1.4930   -0.0040    1.5090 c1        1 33B     -0.178000
     18 C16         2.5320    2.0400    0.7960 c1        1 33B     -0.757000
     19 C17         1.6910    1.3590    1.6630 c2        1 33B      0.159000
     20 S17         2.8480    3.7680    1.0410 s4        1 33B      2.087800
     21 N18         0.9540    2.0780    2.6490 n         1 33B     -0.307000
     22 C19        -0.1300    1.4490    3.3220 c2        1 33B      0.306000
     23 O19        -0.4270    0.3020    3.0570 o         1 33B     -0.376000
     24 C20        -0.9720    2.2400    4.3020 c3        1 33B     -0.150000
     25 O61        -2.1950   -4.1400   -0.3000 o         1 33B     -0.677900
     26 O62        -1.9730   -4.7060   -2.7170 os        1 33B     -1.065000
     27 O63        -0.2740   -5.2730   -0.9840 o         1 33B     -0.677900
     28 O71         3.5550    4.3710   -0.1490 o         1 33B     -0.677900
     29 O72         3.6360    3.9810    2.3120 os        1 33B     -1.065000
     30 O73         1.5640    4.5630    1.0530 o         1 33B     -0.677900
     31 HN3        -3.0480   -2.3850   -1.8010 hn        1 33B      0.285000
     32 H5         -1.1020    0.4840   -2.3260 DU        1 33B      0.153000
     33 H7          1.2530    0.5820   -2.4780 ha        1 33B      0.138000
     34 H8          1.4660   -3.4400   -1.7510 ha        1 33B      0.168000
     35 CL1        -5.2230    0.3830    0.1540 cl        1 33B     -0.107000
     36 H1         -5.1250   -1.3750   -1.2730 h1        1 33B      0.126500
     37 H13         1.9960   -1.6470    0.3780 ha        1 33B      0.138000
     38 H14         3.7310    1.8450   -0.8650 ha        1 33B      0.168000
     39 H15         0.9380   -0.4910    2.1450 DU        1 33B      0.153000
     40 HN18        1.1300    2.9610    2.7940 hn        1 33B      0.285000
     41 CL2        -2.5980    2.3810    3.6900 cl        1 33B     -0.107000
     42 H20        -0.5880    3.1310    4.4160 h1        1 33B      0.126500
     43 H1A        -5.3090   -0.0060   -2.0770 h1        1 33B      0.126500
     44 H20A       -0.9870    1.7790    5.1650 h1        1 33B      0.126500
@<TRIPOS>BOND
     1    1    2 1   
     2    1   35 1   
     3    1   36 1   
     4    1   43 1   
     5    2    3 1   
     6    2    4 1   
     7    4    5 1   
     8    4   31 1   
     9    5    6 1   
    10    5    7 1   
    11    6    9 1   
    12    7    8 1   
    13    7   10 1   
    14    8   25 1   
    15    8   27 1   
    16    9   11 1   
    17    9   33 1   
    18   10   34 1   
    19   11   12 1   
    20   12   13 1   
    21   14   15 1   
    22   14   16 1   
    23   15   17 1   
    24   15   37 1   
    25   16   38 1   
    26   17   19 1   
    27   18   19 1   
    28   18   20 1   
    29   19   21 1   
    30   20   28 1   
    31   20   30 1   
    32   21   22 1   
    33   21   40 1   
    34   22   23 1   
    35   22   24 1   
    36   24   41 1   
    37   24   42 1   
    38   24   44 1   
@<TRIPOS>SUBSTRUCTURE
     1 33B         1 TEMP              0 ****  ****    0 ROOT
