@<TRIPOS>MOLECULE
33B
   44    44     1     0     0
SMALL
bcc


@<TRIPOS>ATOM
      1 C1          0.6070    1.5650   -2.1770 c3        1 33B     -0.148000
      2 C2          1.7160    1.4040   -1.1440 c2        1 33B      0.298000
      3 O2          1.9020    2.3110   -0.3050 o         1 33B     -0.379000
      4 N3          2.4570    0.2510   -1.2240 n         1 33B     -0.293000
      5 C4          3.5610   -0.0630   -0.4390 c2        1 33B      0.100000
      6 C5          3.9340    0.7870    0.8010 c3        1 33B     -0.046000
      7 C6          4.3930   -1.1390   -0.6490 c2        1 33B     -0.807000
      8 S6          4.3210   -2.3770   -1.8690 s6        1 33B      2.903000
      9 C7          5.1670    0.1110    1.1930 cu        1 33B     -0.167000
     10 C8          5.3510   -1.2280    0.4930 cx        1 33B     -0.019000
     11 C9          6.4050   -0.1880    0.7890 cu        1 33B     -0.052000
     12 N10         7.7390    0.0850    0.6190 n2        1 33B     -0.014000
     13 N11         8.3510    0.7100    1.5030 n2        1 33B      0.035000
     14 C12         9.6700    1.0020    1.3300 c1        1 33B     -0.171000
     15 C13         7.8170   -1.3450   -4.6180 c2        1 33B     -0.539000
     16 C14        10.8280    1.3400    1.3450 c1        1 33B      0.004000
     17 C15         7.8780   -1.4760   -5.9020 c1        1 33B      0.051000
     18 C16        12.1700    1.7290    1.3470 c2        1 33B     -0.695000
     19 C17        12.8910    1.4580    0.2230 c2        1 33B      0.092000
     20 S17        12.7400    2.5260    2.8480 s6        1 33B      2.880000
     21 N18        14.2280    1.7890    0.0380 n         1 33B     -0.306000
     22 C19        14.9640    1.3640   -1.0460 c2        1 33B      0.294000
     23 O19        14.4930    0.6910   -1.9860 o         1 33B     -0.367000
     24 C20        16.4390    1.7370   -1.0570 c3        1 33B     -0.149000
     25 O61         3.0620   -2.1560   -2.5130 o         1 33B     -1.077000
     26 O62         5.4020   -2.1580   -2.7530 o         1 33B     -1.077000
     27 O63         4.3850   -3.6050   -1.1770 o         1 33B     -1.077000
     28 O71        12.0370    3.7400    2.9310 o         1 33B     -1.065000
     29 O72        12.4920    1.6160    3.8910 o         1 33B     -1.065000
     30 O73        14.1370    2.7220    2.6230 o         1 33B     -1.065000
     31 HN3         2.2210   -0.4340   -1.9320 hn        1 33B      0.299000
     32 H5          3.1220    0.7320    1.5680 hc        1 33B      0.122000
     33 H7          4.0920    1.8610    0.5280 hc        1 33B      0.122000
     34 H8          5.4340   -2.2220    0.9610 hc        1 33B      0.148000
     35 CL1        -0.7810    0.5790   -1.7750 cl        1 33B     -0.100000
     36 H1          0.9430    1.2660   -3.1980 h1        1 33B      0.125500
     37 H13         6.9120   -1.6830   -4.0400 ha        1 33B      0.240500
     38 H14         8.5630   -0.9240   -3.9320 ha        1 33B      0.240500
     39 H15        12.4370    0.9360   -0.6470 h4        1 33B      0.149000
     40 HN18       14.6940    2.3020    0.7740 hn        1 33B      0.295000
     41 CL2        16.6680    3.4460   -1.3460 cl        1 33B     -0.097000
     42 H20        16.9410    1.1900   -1.8910 h1        1 33B      0.124500
     43 H1A         0.2680    2.6300   -2.1740 h1        1 33B      0.125500
     44 H20A       16.9270    1.4960   -0.0820 h1        1 33B      0.124500
@<TRIPOS>BOND
     1    1    2 1   
     2    1   35 1   
     3    1   36 1   
     4    1   43 1   
     5    2    3 1   
     6    2    4 1   
     7    4    5 1   
     8    4   31 1   
     9    5    6 1   
    10    5    7 1   
    11    6    9 1   
    12    6   32 1   
    13    6   33 1   
    14    7    8 1   
    15    7   10 1   
    16    8   25 1   
    17    8   26 1   
    18    8   27 1   
    19    9   10 1   
    20    9   11 1   
    21   10   11 1   
    22   10   34 1   
    23   11   12 1   
    24   12   13 1   
    25   13   14 1   
    26   14   16 1   
    27   15   17 1   
    28   15   37 1   
    29   15   38 1   
    30   16   18 1   
    31   18   19 1   
    32   18   20 1   
    33   19   21 1   
    34   19   39 1   
    35   20   28 1   
    36   20   29 1   
    37   20   30 1   
    38   21   22 1   
    39   21   40 1   
    40   22   23 1   
    41   22   24 1   
    42   24   41 1   
    43   24   42 1   
    44   24   44 1   
@<TRIPOS>SUBSTRUCTURE
     1 33B         1 TEMP              0 ****  ****    0 ROOT
