@<TRIPOS>MOLECULE
33B
   46    44     1     0     0
SMALL
bcc


@<TRIPOS>ATOM
      1 C1          0.0310    0.0580   -1.4200 c3        1 33B     -0.165000
      2 C2          1.2790    0.7040   -0.8510 c2        1 33B      0.308000
      3 O2          1.2110    1.6720   -0.0830 o         1 33B     -0.291000
      4 N3          2.5110    0.1600   -1.2660 n         1 33B     -0.306000
      5 C4          3.7530    0.6090   -0.8910 c2        1 33B      0.280000
      6 C5          3.8870    1.7540    0.0730 c3        1 33B     -0.208000
      7 C6          4.9140    0.0020   -1.4020 c2        1 33B     -1.034000
      8 S6          4.9340   -1.2400   -2.4770 s6        1 33B      2.893000
      9 C7          5.2120    2.1890    0.4570 c1        1 33B     -0.054000
     10 C8          6.1900    0.4750   -0.9630 c2        1 33B      0.092000
     11 C9          6.3460    1.5270   -0.0780 c2        1 33B     -0.154000
     12 N10         7.6970    1.8410    0.2840 n2        1 33B     -0.078000
     13 N11         7.9870    2.9320    0.7770 n2        1 33B     -0.009000
     14 C12         9.3510    3.1900    1.0960 c2        1 33B     -0.091000
     15 C13         9.5690   -1.4970   -2.7300 c1        1 33B     -0.233500
     16 C14        10.3980    2.4230    0.8510 c1        1 33B      0.020000
     17 C15        10.7560   -1.3750   -2.6380 c1        1 33B     -0.233500
     18 C16        11.4290    1.7230    0.6210 c1        1 33B     -0.503000
     19 C17        12.2440    1.0860   -0.2460 c2        1 33B      0.209000
     20 S17        12.2360    1.2950    2.8970 s4        1 33B      2.867000
     21 N18        13.6010    1.2420   -0.3110 n         1 33B     -0.299000
     22 C19        14.4140    0.4080   -1.0970 c2        1 33B      0.308000
     23 O19        13.9230   -0.4580   -1.8360 o         1 33B     -0.311000
     24 C20        15.9110    0.6100   -0.9940 c3        1 33B     -0.159000
     25 O61         3.9460   -1.0870   -3.4360 o         1 33B     -0.954500
     26 O62         4.3330   -2.4860   -1.5630 oh        1 33B     -0.777000
     27 O63         6.2090   -1.6680   -2.8000 o         1 33B     -0.954500
     28 O71        11.8950   -0.0180    2.9300 o         1 33B     -0.973667
     29 O72        11.5080    2.2160    3.5760 o         1 33B     -0.973667
     30 O73        13.4950    1.6250    2.4780 o         1 33B     -0.973667
     31 HN3         2.4510   -0.6190   -1.9040 hn        1 33B      0.277000
     32 H5          3.3270    1.5070    1.0310 hc        1 33B      0.196500
     33 H7          3.3450    2.6630   -0.3420 hc        1 33B      0.196500
     34 H8          7.0800   -0.0480   -1.3800 ha        1 33B      0.173000
     35 CL1        -0.0050   -1.6610   -1.1580 cl        1 33B     -0.048000
     36 H1         -0.0260    0.2430   -2.5220 h1        1 33B      0.151000
     37 H13         8.5130   -1.6110   -2.8150 ha        1 33B      0.233500
     38 H14         9.4550    4.1670    1.6090 h4        1 33B      0.191000
     39 H15        11.8150    0.2840   -0.9010 h4        1 33B      0.199000
     40 HN18       11.8140   -1.2840   -2.5700 ha        1 33B      0.233500
     41 CL2        16.3780    2.2720   -1.2320 cl        1 33B     -0.061000
     42 H20        16.2680    0.2940    0.0180 h1        1 33B      0.149000
     43 H1A        -0.8620    0.5040   -0.9110 h1        1 33B      0.151000
     44 H20A       16.4110   -0.0030   -1.7860 h1        1 33B      0.149000
     45 H32         4.8940   -3.2430   -1.4030 ho        1 33B      0.286000
     46 H182       14.0490    1.8870    0.3180 hn        1 33B      0.283000
@<TRIPOS>BOND
     1    1    2 1   
     2    1   35 1   
     3    1   36 1   
     4    1   43 1   
     5    2    3 1   
     6    2    4 1   
     7    4    5 1   
     8    4   31 1   
     9    5    6 1   
    10    5    7 1   
    11    6    9 1   
    12    6   32 1   
    13    6   33 1   
    14    7    8 1   
    15    7   10 1   
    16    8   25 1   
    17    8   26 1   
    18    8   27 1   
    19    9   11 1   
    20   10   11 1   
    21   10   34 1   
    22   11   12 1   
    23   12   13 1   
    24   13   14 1   
    25   14   16 1   
    26   14   38 1   
    27   15   17 1   
    28   15   37 1   
    29   16   18 1   
    30   17   40 1   
    31   18   19 1   
    32   19   21 1   
    33   19   39 1   
    34   20   28 1   
    35   20   29 1   
    36   20   30 1   
    37   21   22 1   
    38   21   46 1   
    39   22   23 1   
    40   22   24 1   
    41   24   41 1   
    42   24   42 1   
    43   24   44 1   
    44   26   45 1   
@<TRIPOS>SUBSTRUCTURE
     1 33B         1 TEMP              0 ****  ****    0 ROOT
