@<TRIPOS>MOLECULE
33C
   52    53     1     0     0
SMALL
bcc


@<TRIPOS>ATOM
      1 CAF        -0.5570    0.2790   -1.8980 c2        1 33C     -0.548000
      2 CAH         2.0820    0.6740    0.1000 c1        1 33C      0.078000
      3 CAI        -0.3820    0.4270    5.9260 c1        1 33C     -0.188000
      4 CAJ         6.2060   -1.9420    5.0600 ca        1 33C     -0.074000
      5 CAD        12.8290   -1.8380    6.5660 c3        1 33C     -0.180000
      6 CAE        13.1280   -0.3580    6.6750 c3        1 33C     -0.233000
      7 CAL         7.5950   -1.9200    5.0290 ca        1 33C     -0.146500
      8 CAN        -1.2800   -0.1450   -0.9020 c1        1 33C      0.144000
      9 CAS         3.9810   -0.9830    4.5530 c2        1 33C      0.354000
     10 CAO        -1.1160   -0.0900    3.4860 c2        1 33C     -0.062000
     11 CAP        14.3120   -2.3360    4.6090 c3        1 33C     -0.212000
     12 CAW         8.2770   -0.8490    4.4090 ca        1 33C      0.090000
     13 CAV         5.4640   -0.9100    4.4750 ca        1 33C     -0.141000
     14 CBB        12.5270    0.5110    5.6860 c1        1 33C     -0.001000
     15 CBA        12.8900   -2.3420    5.1350 c3        1 33C     -0.097000
     16 CAZ         1.1120   -0.1530    2.3250 c2        1 33C     -0.037000
     17 CAY        -0.3490   -0.2280    2.3910 c2        1 33C     -0.096000
     18 CAU        10.4730    0.3630    4.3600 c2        1 33C      0.344000
     19 CAX         1.8870   -0.5430    3.3900 c2        1 33C      0.015000
     20 NAQ         1.6590    0.2900    1.1340 n2        1 33C     -0.272000
     21 CAG        -0.6940    0.1840    4.7930 c1        1 33C     -0.149000
     22 NAR         3.2680   -0.5340    3.4360 n         1 33C     -0.319000
     23 OAA         3.3870   -1.4360    5.5470 o         1 33C     -0.332000
     24 CAK         6.1300    0.1590    3.8710 ca        1 33C     -0.074000
     25 CAM         7.5190    0.1950    3.8310 ca        1 33C     -0.146500
     26 NBC         9.6890   -0.8230    4.3720 n         1 33C     -0.305000
     27 CAT        10.5150   -1.9780    4.3340 c2        1 33C      0.315000
     28 OAB        10.1070   -3.1410    4.3640 o         1 33C     -0.296000
     29 CBD        11.9800   -1.5470    4.2110 c3        1 33C     -0.150000
     30 CBE        11.9600   -0.0260    4.4470 c3        1 33C     -0.187000
     31 H1          0.4940    0.6060   -1.7690 ha        1 33C      0.202500
     32 H2         -0.9010    0.3540   -2.9400 ha        1 33C      0.202500
     33 H3          1.3950   -0.9080    4.3190 h4        1 33C      0.199000
     34 H4          5.6790   -2.7740    5.5570 ha        1 33C      0.151000
     35 H5         11.8050   -2.0410    6.9780 hc        1 33C      0.094000
     36 H6         13.5570   -2.4180    7.1920 hc        1 33C      0.094000
     37 H7         12.8210    0.0210    7.6930 hc        1 33C      0.150000
     38 H8         14.2420   -0.1700    6.6020 hc        1 33C      0.150000
     39 H9          8.1550   -2.7540    5.4840 ha        1 33C      0.166500
     40 H10        -0.8570   -0.4110    1.4190 ha        1 33C      0.162000
     41 H11        -2.2150   -0.1910    3.3770 ha        1 33C      0.146000
     42 H12        14.7040   -1.2930    4.5370 hc        1 33C      0.080000
     43 H13        14.3560   -2.8030    3.5960 hc        1 33C      0.080000
     44 H14        14.9750   -2.9170    5.2950 hc        1 33C      0.080000
     45 H15        12.5210   -3.4100    5.1290 hc        1 33C      0.120000
     46 H16        -0.0970    0.6360    6.9250 ha        1 33C      0.227000
     47 H17         3.7860   -0.2200    2.6470 hn        1 33C      0.239000
     48 H18         5.5690    1.0000    3.4320 ha        1 33C      0.151000
     49 H19         8.0190    1.0570    3.3590 ha        1 33C      0.166500
     50 H20        12.2820   -1.7580    3.1460 hc        1 33C      0.133000
     51 H21        12.5070    0.5100    3.6140 hc        1 33C      0.178000
     52 OAC        10.0320    1.5060    4.2630 o         1 33C     -0.266000
@<TRIPOS>BOND
     1    1    8 1   
     2    1   31 1   
     3    1   32 1   
     4    2   20 1   
     5    3   21 1   
     6    3   46 1   
     7    4    7 1   
     8    4   13 1   
     9    4   34 1   
    10    5    6 1   
    11    5   15 1   
    12    5   35 1   
    13    5   36 1   
    14    6   14 1   
    15    6   37 1   
    16    6   38 1   
    17    7   12 1   
    18    7   39 1   
    19    9   13 1   
    20    9   22 1   
    21    9   23 1   
    22   10   17 1   
    23   10   21 1   
    24   10   41 1   
    25   11   15 1   
    26   11   42 1   
    27   11   43 1   
    28   11   44 1   
    29   12   25 1   
    30   12   26 1   
    31   13   24 1   
    32   14   30 1   
    33   15   29 1   
    34   15   45 1   
    35   16   17 1   
    36   16   19 1   
    37   16   20 1   
    38   17   40 1   
    39   18   26 1   
    40   18   30 1   
    41   18   52 1   
    42   19   22 1   
    43   19   33 1   
    44   22   47 1   
    45   24   25 1   
    46   24   48 1   
    47   25   49 1   
    48   26   27 1   
    49   27   28 1   
    50   27   29 1   
    51   29   30 1   
    52   29   50 1   
    53   30   51 1   
@<TRIPOS>SUBSTRUCTURE
     1 33C         1 TEMP              0 ****  ****    0 ROOT
