@<TRIPOS>MOLECULE
33C
   52    52     1     0     0
SMALL
bcc


@<TRIPOS>ATOM
      1 CAF        -0.6230    0.5640   -1.7460 c2        1 33C     -0.548000
      2 CAH         2.0550    0.8490    0.2190 c1        1 33C      0.078000
      3 CAI        -0.2910    0.2630    6.0700 c1        1 33C     -0.188000
      4 CAJ         6.2750   -2.0470    4.9370 ca        1 33C     -0.074000
      5 CAD        12.3820   -2.3180    6.5350 c3        1 33C     -0.216000
      6 CAE        13.3270    1.0750    6.1820 c1        1 33C     -0.156000
      7 CAL         7.6640   -2.0230    4.8790 ca        1 33C     -0.146500
      8 CAN        -1.3280    0.0880   -0.7610 c1        1 33C      0.144000
      9 CAS         4.0410   -1.0610    4.5310 c2        1 33C      0.354000
     10 CAO        -1.0750   -0.1100    3.6190 c2        1 33C     -0.062000
     11 CAP        14.3310   -2.1880    4.9760 c3        1 33C     -0.216000
     12 CAW         8.3330   -0.9190    4.3050 ca        1 33C      0.091000
     13 CAV         5.5220   -0.9840    4.4260 ca        1 33C     -0.142000
     14 CBB        12.7340    0.5150    5.3060 c1        1 33C     -0.175000
     15 CBA        12.8470   -2.4570    5.1020 c3        1 33C     -0.090000
     16 CAZ         1.1290   -0.1060    2.4120 c2        1 33C     -0.037000
     17 CAY        -0.3310   -0.1830    2.5030 c2        1 33C     -0.095000
     18 CAU        10.5280    0.2910    4.2720 c2        1 33C      0.318000
     19 CAX         1.9250   -0.5560    3.4370 c2        1 33C      0.016000
     20 NAQ         1.6530    0.4060    1.2370 n2        1 33C     -0.271000
     21 CAG        -0.6260    0.0870    4.9320 c1        1 33C     -0.149000
     22 NAR         3.3070   -0.5500    3.4550 ns        1 33C     -0.319000
     23 OAA         3.4670   -1.5690    5.5100 o         1 33C     -0.332000
     24 CAK         6.1760    0.1180    3.8700 ca        1 33C     -0.074000
     25 CAM         7.5650    0.1560    3.8040 ca        1 33C     -0.146500
     26 NBC         9.7450   -0.8900    4.2380 n         1 33C     -0.299000
     27 CAT        10.5700   -2.0410    4.1490 c2        1 33C      0.313000
     28 OAB        10.1570   -3.2010    4.0830 o         1 33C     -0.295000
     29 CBD        12.0470   -1.6240    4.1090 c3        1 33C     -0.113000
     30 CBE        12.0260   -0.0840    4.2180 c3        1 33C     -0.003000
     31 H1         -0.9860    0.6950   -2.7760 ha        1 33C      0.202500
     32 H2          0.4310    0.8840   -1.6190 ha        1 33C      0.202500
     33 H3          1.4520   -0.9740    4.3530 h4        1 33C      0.199000
     34 H4          5.7580   -2.9060    5.3980 ha        1 33C      0.151000
     35 H5         12.5790   -1.2930    6.9310 hc        1 33C      0.082333
     36 H6         11.2860   -2.5270    6.6080 hc        1 33C      0.082333
     37 H7         12.9250   -3.0530    7.1780 hc        1 33C      0.082333
     38 H8         13.8520    1.5650    6.9640 ha        1 33C      0.232000
     39 H9          8.2320   -2.8810    5.2740 ha        1 33C      0.166000
     40 H10        -0.8580   -0.3090    1.5330 ha        1 33C      0.162000
     41 H11        -2.1760   -0.2040    3.5270 ha        1 33C      0.146000
     42 H12        14.5730   -1.1360    5.2630 hc        1 33C      0.082333
     43 H13        14.6730   -2.3580    3.9260 hc        1 33C      0.082333
     44 H14        14.8970   -2.8770    5.6490 hc        1 33C      0.082333
     45 H15        12.6640   -3.5340    4.7980 hc        1 33C      0.109000
     46 H16         0.0140    0.4120    7.0740 ha        1 33C      0.227000
     47 H17         3.8090   -0.1930    2.6740 hn        1 33C      0.239000
     48 H18         5.6070    0.9820    3.4910 ha        1 33C      0.151000
     49 H19         8.0560    1.0440    3.3730 ha        1 33C      0.166000
     50 H20        12.4280   -1.8860    3.0800 hc        1 33C      0.130000
     51 H21        12.4320    0.3530    3.2560 hc        1 33C      0.144000
     52 OAC        10.0830    1.4390    4.3000 o         1 33C     -0.285000
@<TRIPOS>BOND
     1    1    8 1   
     2    1   31 1   
     3    1   32 1   
     4    2   20 1   
     5    3   21 1   
     6    3   46 1   
     7    4    7 1   
     8    4   13 1   
     9    4   34 1   
    10    5   15 1   
    11    5   35 1   
    12    5   36 1   
    13    5   37 1   
    14    6   14 1   
    15    6   38 1   
    16    7   12 1   
    17    7   39 1   
    18    9   13 1   
    19    9   22 1   
    20    9   23 1   
    21   10   17 1   
    22   10   21 1   
    23   10   41 1   
    24   11   15 1   
    25   11   42 1   
    26   11   43 1   
    27   11   44 1   
    28   12   25 1   
    29   12   26 1   
    30   13   24 1   
    31   14   30 1   
    32   15   29 1   
    33   15   45 1   
    34   16   17 1   
    35   16   19 1   
    36   16   20 1   
    37   17   40 1   
    38   18   26 1   
    39   18   30 1   
    40   18   52 1   
    41   19   22 1   
    42   19   33 1   
    43   22   47 1   
    44   24   25 1   
    45   24   48 1   
    46   25   49 1   
    47   26   27 1   
    48   27   28 1   
    49   27   29 1   
    50   29   30 1   
    51   29   50 1   
    52   30   51 1   
@<TRIPOS>SUBSTRUCTURE
     1 33C         1 TEMP              0 ****  ****    0 ROOT
