@<TRIPOS>MOLECULE
33C
   52    54     1     0     0
SMALL
bcc


@<TRIPOS>ATOM
      1 CAF        -0.5420    0.5500   -1.6840 c2        1 33C     -0.548000
      2 CAH         2.1830    0.7780    0.2210 c1        1 33C      0.077000
      3 CAI        -0.0730    0.5250    6.1310 c1        1 33C     -0.188000
      4 CAJ         6.3470   -2.1520    4.9680 ca        1 33C     -0.074000
      5 CAD        12.2410   -2.0900    6.4870 c3        1 33C     -0.168500
      6 CAE        12.2900   -0.5510    6.5160 c3        1 33C     -0.168500
      7 CAL         7.7340   -2.2010    4.8840 ca        1 33C     -0.147500
      8 CAN        -1.2520    0.1510   -0.6690 c1        1 33C      0.144000
      9 CAS         4.1580   -1.0700    4.5650 c2        1 33C      0.354000
     10 CAO        -0.9220    0.1040    3.7110 c2        1 33C     -0.063000
     11 CAP        14.0610   -1.3510    5.1290 c3        1 33C     -0.167000
     12 CAW         8.4470   -1.1550    4.2560 ca        1 33C      0.091000
     13 CAV         5.6380   -1.0720    4.4310 ca        1 33C     -0.143000
     14 CBB        13.0460   -0.1780    5.2260 c3        1 33C     -0.096000
     15 CBA        12.9730   -2.4610    5.1830 c3        1 33C     -0.096000
     16 CAZ         1.2550   -0.0470    2.4650 c2        1 33C     -0.038000
     17 CAY        -0.2040   -0.0480    2.5850 c2        1 33C     -0.095000
     18 CAU        10.6960   -0.0490    4.1380 c2        1 33C      0.325000
     19 CAX         2.0480   -0.4990    3.4910 c2        1 33C      0.016000
     20 NAQ         1.7800    0.3940    1.2620 n2        1 33C     -0.271000
     21 CAG        -0.4390    0.3260    5.0070 c1        1 33C     -0.149000
     22 NAR         3.4280   -0.5620    3.4840 n         1 33C     -0.319000
     23 OAA         3.5780   -1.5110    5.5730 o         1 33C     -0.333000
     24 CAK         6.3350   -0.0260    3.8210 ca        1 33C     -0.074000
     25 CAM         7.7230   -0.0610    3.7280 ca        1 33C     -0.147500
     26 NBC         9.8550   -1.1980    4.1590 n         1 33C     -0.305000
     27 CAT        10.6210   -2.3970    4.0960 c2        1 33C      0.325000
     28 OAB        10.1450   -3.5350    4.1030 o         1 33C     -0.296500
     29 CBD        12.0980   -2.0490    3.9820 c3        1 33C     -0.135000
     30 CBE        12.1480   -0.4870    4.0120 c3        1 33C     -0.135000
     31 H1          0.5280    0.8220   -1.5870 ha        1 33C      0.202500
     32 H2         -0.9170    0.6580   -2.7130 ha        1 33C      0.202500
     33 H3          1.5730   -0.8580    4.4310 h4        1 33C      0.198000
     34 H4          5.7980   -2.9650    5.4710 ha        1 33C      0.150000
     35 H5         11.1950   -2.4760    6.5000 hc        1 33C      0.096250
     36 H6         12.7800   -2.5230    7.3640 hc        1 33C      0.096250
     37 H7         11.2700   -0.0990    6.5450 hc        1 33C      0.096250
     38 H8         12.8540   -0.1870    7.4090 hc        1 33C      0.096250
     39 H9          8.2660   -3.0710    5.3010 ha        1 33C      0.165000
     40 H10        -0.7570   -0.1820    1.6300 ha        1 33C      0.161000
     41 H11        -2.0280    0.0620    3.6420 ha        1 33C      0.146000
     42 H12        13.4710    0.8440    5.2210 hc        1 33C      0.127000
     43 H13        14.7550   -1.3900    5.9960 hc        1 33C      0.100000
     44 H14        14.6420   -1.3520    4.1810 hc        1 33C      0.100000
     45 H15        13.3320   -3.5070    5.1370 hc        1 33C      0.127000
     46 H16         0.2590    0.6960    7.1240 ha        1 33C      0.227000
     47 H17         3.9320   -0.2610    2.6810 hn        1 33C      0.239000
     48 H18         5.8030    0.8500    3.4190 ha        1 33C      0.150000
     49 H19         8.2490    0.7830    3.2540 ha        1 33C      0.165000
     50 H20        12.5010   -2.4730    3.0300 hc        1 33C      0.138000
     51 H21        12.5800   -0.0540    3.0770 hc        1 33C      0.138000
     52 OAC        10.2940    1.1160    4.1890 o         1 33C     -0.296500
@<TRIPOS>BOND
     1    1    8 1   
     2    1   31 1   
     3    1   32 1   
     4    2   20 1   
     5    3   21 1   
     6    3   46 1   
     7    4    7 1   
     8    4   13 1   
     9    4   34 1   
    10    5    6 1   
    11    5   15 1   
    12    5   35 1   
    13    5   36 1   
    14    6   14 1   
    15    6   37 1   
    16    6   38 1   
    17    7   12 1   
    18    7   39 1   
    19    9   13 1   
    20    9   22 1   
    21    9   23 1   
    22   10   17 1   
    23   10   21 1   
    24   10   41 1   
    25   11   14 1   
    26   11   15 1   
    27   11   43 1   
    28   11   44 1   
    29   12   25 1   
    30   12   26 1   
    31   13   24 1   
    32   14   30 1   
    33   14   42 1   
    34   15   29 1   
    35   15   45 1   
    36   16   17 1   
    37   16   19 1   
    38   16   20 1   
    39   17   40 1   
    40   18   26 1   
    41   18   30 1   
    42   18   52 1   
    43   19   22 1   
    44   19   33 1   
    45   22   47 1   
    46   24   25 1   
    47   24   48 1   
    48   25   49 1   
    49   26   27 1   
    50   27   28 1   
    51   27   29 1   
    52   29   30 1   
    53   29   50 1   
    54   30   51 1   
@<TRIPOS>SUBSTRUCTURE
     1 33C         1 TEMP              0 ****  ****    0 ROOT
