@<TRIPOS>MOLECULE
33D
   21    20     1     0     0
SMALL
bcc


@<TRIPOS>ATOM
      1 C1          0.0430    0.0010   -0.0380 c3        1 33D      0.131400
      2 O1          1.4580   -0.0010    0.0920 oh        1 33D     -0.603800
      3 C3         -2.0490   -0.0000    1.4150 c3        1 33D     -0.055000
      4 C5         -2.6100    1.2420    0.7400 c3        1 33D     -0.087100
      5 C4         -2.6100   -1.2430    0.7410 c3        1 33D     -0.087100
      6 C2         -0.5230   -0.0010    1.3710 c3        1 33D     -0.075400
      7 C6         -2.4750    0.0000    2.8800 c3        1 33D     -0.087100
      8 HC1        -0.2860   -0.9110   -0.6050 h1        1 33D      0.021700
      9 HC2        -0.2830    0.9170   -0.6010 h1        1 33D      0.021700
     10 H1          1.8150   -0.0000   -0.8030 ho        1 33D      0.398000
     11 HC3        -0.1370    0.9020    1.9140 hc        1 33D      0.054700
     12 HC4        -0.1380   -0.9050    1.9110 hc        1 33D      0.054700
     13 H41        -2.4160   -1.2180   -0.3580 hc        1 33D      0.034811
     14 H42        -3.7140   -1.3000    0.9000 hc        1 33D      0.034811
     15 H43        -2.1400   -2.1610    1.1660 hc        1 33D      0.034811
     16 H61        -2.0810    0.9070    3.3970 hc        1 33D      0.034811
     17 H62        -2.0810   -0.9070    3.3980 hc        1 33D      0.034811
     18 H63        -3.5880    0.0000    2.9590 hc        1 33D      0.034811
     19 H51        -2.1380    2.1610    1.1650 hc        1 33D      0.034811
     20 H52        -3.7130    1.3010    0.9000 hc        1 33D      0.034811
     21 H53        -2.4160    1.2160   -0.3590 hc        1 33D      0.034811
@<TRIPOS>BOND
     1    1    2 1   
     2    1    6 1   
     3    1    8 1   
     4    1    9 1   
     5    2   10 1   
     6    3    4 1   
     7    3    5 1   
     8    3    6 1   
     9    3    7 1   
    10    4   19 1   
    11    4   20 1   
    12    4   21 1   
    13    5   13 1   
    14    5   14 1   
    15    5   15 1   
    16    6   11 1   
    17    6   12 1   
    18    7   16 1   
    19    7   17 1   
    20    7   18 1   
@<TRIPOS>SUBSTRUCTURE
     1 33D         1 TEMP              0 ****  ****    0 ROOT
