@<TRIPOS>MOLECULE
33D
   21    20     1     0     0
SMALL
bcc


@<TRIPOS>ATOM
      1 C1          1.5010    0.1190   -1.0490 c3        1 33D      0.131400
      2 O1          2.9110    0.1190   -1.0490 oh        1 33D     -0.603800
      3 C3         -0.5090   -0.0320    0.3800 c3        1 33D     -0.055000
      4 C5         -1.1300    1.0970   -0.4140 c3        1 33D     -0.087100
      5 C4         -0.8840   -1.3560   -0.2480 c3        1 33D     -0.087100
      6 C2          0.9970    0.1190    0.3770 c3        1 33D     -0.075400
      7 C6         -1.0180    0.0140    1.8040 c3        1 33D     -0.087100
      8 HC1         1.1760   -0.6780   -1.5090 h1        1 33D      0.021700
      9 HC2         1.1760    0.9160   -1.5090 h1        1 33D      0.021700
     10 H1          3.2070    0.1790   -1.8840 ho        1 33D      0.398000
     11 HC3         1.3990   -0.6250    0.8650 hc        1 33D      0.055200
     12 HC4         1.2400    0.9600    0.8080 hc        1 33D      0.055200
     13 H41        -0.8240   -1.2840   -1.2190 hc        1 33D      0.034811
     14 H42        -0.2730   -2.0490    0.0660 hc        1 33D      0.034811
     15 H43        -1.7980   -1.5890    0.0060 hc        1 33D      0.034811
     16 H61        -1.9890   -0.0840    1.8060 hc        1 33D      0.034811
     17 H62        -0.7760    0.8690    2.2090 hc        1 33D      0.034811
     18 H63        -0.6160   -0.7130    2.3160 hc        1 33D      0.034811
     19 H51        -0.7000    1.9390   -0.1730 hc        1 33D      0.034811
     20 H52        -1.0070    0.9300   -1.3680 hc        1 33D      0.034811
     21 H53        -2.0840    1.1490   -0.2130 hc        1 33D      0.034811
@<TRIPOS>BOND
     1    1    2 1   
     2    1    6 1   
     3    1    8 1   
     4    1    9 1   
     5    2   10 1   
     6    3    4 1   
     7    3    5 1   
     8    3    6 1   
     9    3    7 1   
    10    4   19 1   
    11    4   20 1   
    12    4   21 1   
    13    5   13 1   
    14    5   14 1   
    15    5   15 1   
    16    6   11 1   
    17    6   12 1   
    18    7   16 1   
    19    7   17 1   
    20    7   18 1   
@<TRIPOS>SUBSTRUCTURE
     1 33D         1 TEMP              0 ****  ****    0 ROOT
