@<TRIPOS>MOLECULE
33D
   21    20     1     0     0
SMALL
bcc


@<TRIPOS>ATOM
      1 C1         -1.5840   -0.3270   -0.0840 c3        1 33D      0.131400
      2 O1         -2.7790    0.4320    0.0330 oh        1 33D     -0.603800
      3 C3          0.9420   -0.0110    0.0210 c3        1 33D     -0.055000
      4 C5          1.1360   -0.8460    1.2770 c3        1 33D     -0.087100
      5 C4          1.1150   -0.8910   -1.2070 c3        1 33D     -0.087100
      6 C2         -0.4320    0.6570    0.0220 c3        1 33D     -0.075400
      7 C6          1.9980    1.0890   -0.0060 c3        1 33D     -0.087100
      8 HC1        -1.5390   -1.0910    0.7380 h1        1 33D      0.021700
      9 HC2        -1.5670   -0.8570   -1.0740 h1        1 33D      0.021700
     10 H1         -3.5090   -0.1930   -0.0420 ho        1 33D      0.398000
     11 HC3        -0.4950    1.3750   -0.8380 hc        1 33D      0.054700
     12 HC4        -0.5520    1.2540    0.9640 hc        1 33D      0.054700
     13 H41         0.4450   -1.7820   -1.1500 hc        1 33D      0.034811
     14 H42         0.8700   -0.3180   -2.1330 hc        1 33D      0.034811
     15 H43         2.1700   -1.2490   -1.2780 hc        1 33D      0.034811
     16 H61         1.9000    1.6990   -0.9360 hc        1 33D      0.034811
     17 H62         1.8790    1.7620    0.8770 hc        1 33D      0.034811
     18 H63         3.0210    0.6430    0.0210 hc        1 33D      0.034811
     19 H51         2.1780   -1.2450    1.3140 hc        1 33D      0.034811
     20 H52         0.9600   -0.2240    2.1880 hc        1 33D      0.034811
     21 H53         0.4290   -1.7090    1.2920 hc        1 33D      0.034811
@<TRIPOS>BOND
     1    1    2 1   
     2    1    6 1   
     3    1    8 1   
     4    1    9 1   
     5    2   10 1   
     6    3    4 1   
     7    3    5 1   
     8    3    6 1   
     9    3    7 1   
    10    4   19 1   
    11    4   20 1   
    12    4   21 1   
    13    5   13 1   
    14    5   14 1   
    15    5   15 1   
    16    6   11 1   
    17    6   12 1   
    18    7   16 1   
    19    7   17 1   
    20    7   18 1   
@<TRIPOS>SUBSTRUCTURE
     1 33D         1 TEMP              0 ****  ****    0 ROOT
