@<TRIPOS>MOLECULE
33E
   19    19     1     0     0
SMALL
bcc


@<TRIPOS>ATOM
      1 OAC         0.6800    1.0090    0.4140 o         1 33E     -0.143500
      2 NAM         1.1870   -0.0080    0.0460 no        1 33E      0.310200
      3 OAD         1.0750   -1.0610    0.5990 o         1 33E     -0.143500
      4 CAL         1.9860    0.0330   -1.2340 ca        1 33E     -0.133200
      5 CAH         1.2840   -0.1260   -2.4370 ca        1 33E     -0.001000
      6 CAJ         3.3740    0.2230   -1.2220 ca        1 33E      0.120900
      7 IAE         4.4610    0.4720    0.4630 i         1 33E     -0.000900
      8 CAF         4.0530    0.2470   -2.4500 ca        1 33E     -0.094000
      9 CAG         3.3760    0.0910   -3.6530 ca        1 33E     -0.076000
     10 CAK         1.9850   -0.0950   -3.6540 ca        1 33E     -0.193600
     11 CAI         1.1810   -0.2700   -4.8610 c         1 33E      0.572700
     12 OAB        -0.0130   -0.5070   -4.9650 o         1 33E     -0.396100
     13 NAA         1.8930   -0.1380   -6.1970 nz        1 33E     -0.760400
     14 H1          0.1860   -0.2750   -2.4370 ha        1 33E      0.196000
     15 H2          5.1490    0.3920   -2.4650 ha        1 33E      0.188000
     16 H3          3.9650    0.1140   -4.5830 ha        1 33E      0.137000
     17 H4          2.6110   -0.8640   -6.2840 hn        1 33E      0.472467
     18 H5          1.2120   -0.2450   -6.9620 hn        1 33E      0.472467
     19 HAA3        2.3380    0.7820   -6.2680 hn        1 33E      0.472467
@<TRIPOS>BOND
     1    1    2 1   
     2    2    3 1   
     3    2    4 1   
     4    4    5 ar  
     5    4    6 ar  
     6    5   10 ar  
     7    5   14 1   
     8    6    7 1   
     9    6    8 ar  
    10    8    9 ar  
    11    8   15 1   
    12    9   10 ar  
    13    9   16 1   
    14   10   11 1   
    15   11   12 2   
    16   11   13 1   
    17   13   17 1   
    18   13   18 1   
    19   13   19 1   
@<TRIPOS>SUBSTRUCTURE
     1 33E         1 TEMP              0 ****  ****    0 ROOT
