@<TRIPOS>MOLECULE
33E
   19    19     1     0     0
SMALL
bcc


@<TRIPOS>ATOM
      1 OAC         0.6750    1.0440    0.3930 o         1 33E     -0.143000
      2 NAM         1.1730    0.0160    0.0410 no        1 33E      0.310200
      3 OAD         1.0460   -1.0280    0.6060 o         1 33E     -0.143000
      4 CAL         1.9790    0.0320   -1.2350 ca        1 33E     -0.133200
      5 CAH         1.2790   -0.1030   -2.4410 ca        1 33E     -0.001000
      6 CAJ         3.3730    0.1790   -1.2160 ca        1 33E      0.120900
      7 IAE         4.4580    0.3960    0.4740 i         1 33E     -0.000900
      8 CAF         4.0580    0.1800   -2.4400 ca        1 33E     -0.094000
      9 CAG         3.3830    0.0460   -3.6470 ca        1 33E     -0.076000
     10 CAK         1.9860   -0.0930   -3.6550 ca        1 33E     -0.193600
     11 CAI         1.1840   -0.2420   -4.8660 c         1 33E      0.572700
     12 OAB        -0.0130   -0.4620   -4.9760 o         1 33E     -0.396100
     13 NAA         1.9020   -0.1020   -6.1980 n4        1 33E     -0.760400
     14 H1          0.1770   -0.2160   -2.4480 ha        1 33E      0.196000
     15 H2          5.1590    0.2890   -2.4500 ha        1 33E      0.188000
     16 H3          3.9770    0.0480   -4.5740 ha        1 33E      0.137000
     17 H4          2.3670    0.8090   -6.2510 hn        1 33E      0.472467
     18 H5          2.6030   -0.8420   -6.2980 hn        1 33E      0.472467
     19 HAA3        1.2200   -0.1790   -6.9660 hn        1 33E      0.472467
@<TRIPOS>BOND
     1    1    2 1   
     2    2    3 1   
     3    2    4 1   
     4    4    5 ar  
     5    4    6 ar  
     6    5   10 ar  
     7    5   14 1   
     8    6    7 1   
     9    6    8 ar  
    10    8    9 ar  
    11    8   15 1   
    12    9   10 ar  
    13    9   16 1   
    14   10   11 1   
    15   11   12 2   
    16   11   13 1   
    17   13   17 1   
    18   13   18 1   
    19   13   19 1   
@<TRIPOS>SUBSTRUCTURE
     1 33E         1 TEMP              0 ****  ****    0 ROOT
