@<TRIPOS>MOLECULE
33E
   18    18     1     0     0
SMALL
bcc


@<TRIPOS>ATOM
      1 OAC         0.8960    0.8290    0.5920 o         1 33E     -0.179500
      2 NAM         1.1670   -0.1570   -0.0310 no        1 33E      0.306200
      3 OAD         0.7860   -1.2510    0.2790 o         1 33E     -0.179500
      4 CAL         1.9840   -0.0180   -1.2810 ca        1 33E     -0.124200
      5 CAH         1.2990    0.0140   -2.5040 ca        1 33E     -0.043000
      6 CAJ         3.3830    0.0740   -1.2300 ca        1 33E      0.071900
      7 IAE         4.4530    0.0070    0.4850 i         1 33E     -0.081900
      8 CAF         4.0840    0.2140   -2.4290 ca        1 33E     -0.106000
      9 CAG         3.4170    0.2440   -3.6540 ca        1 33E     -0.085000
     10 CAK         2.0260    0.1350   -3.6930 ca        1 33E     -0.120600
     11 CAI         1.2600    0.1760   -4.9750 c         1 33E      0.666700
     12 OAB         0.1530    0.7440   -5.0520 o         1 33E     -0.590100
     13 NAA         1.8100   -0.4330   -6.0750 n         1 33E     -0.667000
     14 H1          0.1970   -0.0430   -2.5500 ha        1 33E      0.185000
     15 H2          5.1840    0.3020   -2.4160 ha        1 33E      0.161000
     16 H3          3.9990    0.3710   -4.5810 ha        1 33E      0.151000
     17 H4          1.2980   -0.4490   -6.9230 hn        1 33E      0.317500
     18 H5          2.6360   -0.9670   -6.0060 hn        1 33E      0.317500
@<TRIPOS>BOND
     1    1    2 1   
     2    2    3 1   
     3    2    4 1   
     4    4    5 ar  
     5    4    6 ar  
     6    5   10 ar  
     7    5   14 1   
     8    6    7 1   
     9    6    8 ar  
    10    8    9 ar  
    11    8   15 1   
    12    9   10 ar  
    13    9   16 1   
    14   10   11 1   
    15   11   12 2   
    16   11   13 1   
    17   13   17 1   
    18   13   18 1   
@<TRIPOS>SUBSTRUCTURE
     1 33E         1 TEMP              0 ****  ****    0 ROOT
