@<TRIPOS>MOLECULE
33F
   78    81     1     0     0
SMALL
bcc


@<TRIPOS>ATOM
      1 C1         -6.1700    1.1290   -0.1200 ca        1 33F     -0.104000
      2 C2         -5.4410   -1.1370   -0.5780 ca        1 33F     -0.104000
      3 C3         -7.4730    0.6800    0.0840 ca        1 33F     -0.126500
      4 C4         -6.7350   -1.6070   -0.3690 ca        1 33F     -0.126500
      5 C5          1.5780    3.9780   -1.5610 ca        1 33F     -0.188500
      6 C6          2.5630    5.0740    0.3910 ca        1 33F     -0.188500
      7 C7          0.6380    3.3810   -0.7320 ca        1 33F      0.016500
      8 C8          1.6080    4.4600    1.1940 ca        1 33F      0.016500
      9 C9          4.4780   -3.3770    2.0090 ca        1 33F     -0.114300
     10 C10         3.6030   -2.3450    2.3350 ca        1 33F     -0.257300
     11 C11        -5.1540    0.2280   -0.4550 ca        1 33F     -0.099300
     12 C12        -7.7400   -0.6900   -0.0390 ca        1 33F      0.088100
     13 C13         2.5420    4.8260   -0.9870 ca        1 33F      0.192100
     14 C14         0.6360    3.6060    0.6520 ca        1 33F     -0.419500
     15 C15         4.3620   -3.9720    0.7350 ca        1 33F      0.241800
     16 C16         2.6350   -1.9520    1.3630 ca        1 33F      0.581200
     17 C18        -1.4680    0.4410    0.0510 c         1 33F      0.642100
     18 C19         2.1530    0.2270    2.3250 c3        1 33F      0.172800
     19 C20         1.0010    1.1080    2.8540 c3        1 33F      0.217800
     20 C21         0.6330   -0.7190    0.6780 c3        1 33F      0.178800
     21 C22        -0.5100    0.1770    1.2420 c3        1 33F      0.175500
     22 C24         5.3610   -8.1290   -1.2270 c3        1 33F     -0.112100
     23 C25        -3.7640    0.7300   -0.7140 c3        1 33F      0.117300
     24 C26         6.6780   -6.5560   -2.6380 c3        1 33F     -0.092400
     25 C27         6.0790   -6.7760   -1.2380 c3        1 33F      0.096700
     26 C28        -9.8360   -1.6470   -0.7020 c3        1 33F      0.820700
     27 C29         4.4510    6.2370   -1.4830 c3        1 33F      0.827700
     28 N30         3.4020   -3.5440   -0.1500 nb        1 33F     -0.269000
     29 N31         2.6030   -2.6110    0.1240 nb        1 33F     -0.352000
     30 N32         1.6620   -0.9790    1.6740 nh        1 33F     -0.729300
     31 N33        -0.0250    1.3830    1.8770 n3        1 33F     -0.809500
     32 N34         5.2110   -5.6890   -0.8350 n         1 33F     -0.545900
     33 N35        -2.8180    0.2780    0.2850 n         1 33F     -0.512900
     34 O36         6.1840   -5.4150    1.2270 o         1 33F     -0.624100
     35 O37        -1.0090    0.6870   -1.0820 o         1 33F     -0.607100
     36 O40        -9.0180   -1.1270    0.3130 os        1 33F     -0.370900
     37 O41         3.4330    5.3650   -1.9020 os        1 33F     -0.364900
     38 F42        -9.3630   -2.8270   -1.1770 f         1 33F     -0.216300
     39 F43       -11.0360   -1.8570   -0.1070 f         1 33F     -0.216300
     40 F44        -9.9930   -0.7850   -1.7370 f         1 33F     -0.216300
     41 F45         5.3090    5.6400   -0.6190 f         1 33F     -0.207967
     42 F46         5.1080    6.5540   -2.6240 f         1 33F     -0.207967
     43 F47         3.9570    7.3650   -0.9170 f         1 33F     -0.207967
     44 S48        -0.5310    2.9260    1.6480 sy        1 33F      1.516200
     45 H1         -5.9430    2.2020   -0.0190 ha        1 33F      0.149000
     46 H2         -4.6380   -1.8430   -0.8400 ha        1 33F      0.149000
     47 H3         -8.2810    1.3770    0.3490 ha        1 33F      0.156500
     48 H4         -6.9730   -2.6770   -0.4630 ha        1 33F      0.156500
     49 H5          1.5790    3.8000   -2.6470 ha        1 33F      0.165000
     50 H6          3.3140    5.7440    0.8340 ha        1 33F      0.165000
     51 H7         -0.1270    2.7150   -1.1790 ha        1 33F      0.174500
     52 H8          1.6050    4.6620    2.2810 ha        1 33F      0.174500
     53 H9          5.2460   -3.7350    2.7140 ha        1 33F      0.181000
     54 H10         3.6550   -1.8700    3.3240 ha        1 33F      0.155000
     55 H19         2.7890    0.8340    1.6170 h1        1 33F      0.053700
     56 H19A        2.7860   -0.0560    3.2110 h1        1 33F      0.053700
     57 H20         0.5340    0.5960    3.7460 h1        1 33F      0.065700
     58 H20A        1.4470    2.0830    3.2060 h1        1 33F      0.065700
     59 H21         0.1620   -1.6970    0.3760 h1        1 33F      0.081200
     60 H21A        1.0590   -0.2310   -0.2460 h1        1 33F      0.081200
     61 H22        -1.0540   -0.4270    2.0350 h1        1 33F      0.070700
     62 H23         8.0910   -5.3100   -3.6960 hc        1 33F      0.037367
     63 H23A        7.0380   -4.4150   -2.5280 hc        1 33F      0.037367
     64 H23B        8.3950   -5.4450   -1.9150 hc        1 33F      0.037367
     65 H24A        6.0950   -8.9320   -1.4750 hc        1 33F      0.042033
     66 H24B        4.9310   -8.3410   -0.2190 hc        1 33F      0.042033
     67 H25        -3.4120    0.3560   -1.7200 h1        1 33F      0.074200
     68 H25A       -3.7640    1.8610   -0.7490 h1        1 33F      0.074200
     69 H26         5.8560   -6.4400   -3.3920 hc        1 33F      0.045200
     70 H26A        7.2490   -7.4840   -2.9080 hc        1 33F      0.045200
     71 H27         6.9320   -6.8250   -0.4920 h1        1 33F      0.087700
     72 HN34        4.5050   -5.4150   -1.4760 hn        1 33F      0.328500
     73 HN35       -3.1270    0.3480    1.2290 hn        1 33F      0.310500
     74 C17         5.3160   -5.0800    0.3900 c         1 33F      0.584600
     75 O38        -0.4930    3.6020    2.8880 o         1 33F     -0.652300
     76 O39        -1.7790    2.9000    0.9880 o         1 33F     -0.652300
     77 H24         4.5380   -8.1520   -1.9800 hc        1 33F      0.042033
     78 C23         7.5990   -5.3670   -2.6950 c3        1 33F     -0.094100
@<TRIPOS>BOND
     1    1    3 ar  
     2    1   11 ar  
     3    1   45 1   
     4    2    4 ar  
     5    2   11 ar  
     6    2   46 1   
     7    3   12 ar  
     8    3   47 1   
     9    4   12 ar  
    10    4   48 1   
    11    5    7 ar  
    12    5   13 ar  
    13    5   49 1   
    14    6    8 ar  
    15    6   13 ar  
    16    6   50 1   
    17    7   14 ar  
    18    7   51 1   
    19    8   14 ar  
    20    8   52 1   
    21    9   10 ar  
    22    9   15 ar  
    23    9   53 1   
    24   10   16 ar  
    25   10   54 1   
    26   11   23 1   
    27   12   36 1   
    28   13   37 1   
    29   14   44 1   
    30   15   28 ar  
    31   15   74 1   
    32   16   29 ar  
    33   16   30 1   
    34   17   21 1   
    35   17   33 1   
    36   17   35 2   
    37   18   19 1   
    38   18   30 1   
    39   18   55 1   
    40   18   56 1   
    41   19   31 1   
    42   19   57 1   
    43   19   58 1   
    44   20   21 1   
    45   20   30 1   
    46   20   59 1   
    47   20   60 1   
    48   21   31 1   
    49   21   61 1   
    50   22   25 1   
    51   22   65 1   
    52   22   66 1   
    53   22   77 1   
    54   23   33 1   
    55   23   67 1   
    56   23   68 1   
    57   24   25 1   
    58   24   69 1   
    59   24   70 1   
    60   24   78 1   
    61   25   32 1   
    62   25   71 1   
    63   26   36 1   
    64   26   38 1   
    65   26   39 1   
    66   26   40 1   
    67   27   37 1   
    68   27   41 1   
    69   27   42 1   
    70   27   43 1   
    71   28   29 ar  
    72   31   44 1   
    73   32   72 1   
    74   32   74 1   
    75   33   73 1   
    76   34   74 2   
    77   44   75 2   
    78   44   76 2   
    79   62   78 1   
    80   63   78 1   
    81   64   78 1   
@<TRIPOS>SUBSTRUCTURE
     1 33F         1 TEMP              0 ****  ****    0 ROOT
