@<TRIPOS>MOLECULE
33F
   78    71     1     0     0
SMALL
bcc


@<TRIPOS>ATOM
      1 C1          5.2860    4.3530   -0.7420 c1        1 33F     -0.047000
      2 C2          4.8990    3.1980    1.3280 c1        1 33F     -0.045500
      3 C3          6.6720    4.1840   -0.5750 c1        1 33F     -0.047000
      4 C4          6.2700    3.0320    1.4930 c1        1 33F     -0.115000
      5 C5         -1.8860    1.7560   -6.5890 c1        1 33F     -0.047000
      6 C6         -3.8980    2.7280   -5.7030 c1        1 33F     -0.115000
      7 C7         -1.2340    2.0080   -5.3800 c1        1 33F     -0.047000
      8 C8         -3.2550    2.9780   -4.5030 c1        1 33F      0.073500
      9 C9         -1.2820   -2.5130    3.0490 c1        1 33F     -0.047000
     10 C10        -0.7920   -1.5210    2.2330 c1        1 33F     -0.047000
     11 C11         4.4100    3.8610    0.2050 c1        1 33F     -0.063100
     12 C12         7.1570    3.5320    0.5310 c1        1 33F      0.123600
     13 C13        -3.2100    2.1150   -6.7490 c1        1 33F      0.123600
     14 C14        -1.9160    2.6170   -4.3400 c1        1 33F     -0.448200
     15 C15        -2.6090   -2.8620    2.9850 cg        1 33F      0.167600
     16 C16        -1.6320   -0.8790    1.3540 c1        1 33F      0.456600
     17 C17        -3.1100   -4.1050    3.7530 c         1 33F      0.645300
     18 C18         0.7890    2.9380   -0.5140 c1        1 33F      0.510500
     19 C19        -2.2230   -0.0520   -0.7610 c3        1 33F      0.180800
     20 C20        -1.8280    0.6700   -2.0010 c3        1 33F      0.036300
     21 C21        -0.3720    0.8810    0.4030 c3        1 33F      0.101500
     22 C22         0.0880    1.6330   -0.8630 c2        1 33F      0.286200
     23 C23        -2.3700   -7.5500    7.0460 c3        1 33F     -0.092100
     24 C24        -2.4030   -7.1730    3.8460 c3        1 33F     -0.108100
     25 C25         2.8780    4.1420    0.0650 c3        1 33F      0.020400
     26 C26        -1.6240   -6.6290    6.1260 c3        1 33F     -0.097400
     27 C27        -2.5400   -6.2010    4.9810 c3        1 33F      0.096700
     28 C28         9.5000    3.2930    1.0890 c3        1 33F      0.824700
     29 C29        -4.4220    0.6830   -8.2350 c3        1 33F      0.824700
     30 N30        -3.4470   -2.2180    2.1050 n1        1 33F     -0.329800
     31 N31        -2.9590   -1.2300    1.2920 n1        1 33F     -0.422800
     32 N32        -1.1360   -0.2970    0.1080 n3        1 33F     -0.595200
     33 N33        -1.0770    1.8610   -1.7350 nh        1 33F     -0.529600
     34 N34        -2.1750   -4.8990    4.5390 n         1 33F     -0.550900
     35 N35         2.2320    2.9870   -0.4460 n3        1 33F     -0.349400
     36 O36        -4.3020   -4.4580    3.6590 o         1 33F     -0.624100
     37 O37         0.1270    3.9240   -0.2040 o         1 33F     -0.569500
     38 O38         0.2750    3.5400   -3.1260 o         1 33F     -0.648800
     39 O39        -1.6350    4.3090   -2.2870 o         1 33F     -0.648800
     40 O40         8.5360    3.6820    0.1010 os        1 33F     -0.352900
     41 O41        -3.8310    1.9740   -8.0180 os        1 33F     -0.352900
     42 F42         9.2230    2.0550    1.5200 f         1 33F     -0.211133
     43 F43        10.7370    3.3150    0.5450 f         1 33F     -0.211133
     44 F44         9.4520    4.1390    2.1130 f         1 33F     -0.211133
     45 F45        -3.6680   -0.2710   -7.6190 f         1 33F     -0.211133
     46 F46        -5.6510    0.6680   -7.7330 f         1 33F     -0.211133
     47 F47        -4.4760    0.4270   -9.5630 f         1 33F     -0.211133
     48 S48        -1.0630    3.1080   -2.8440 s6        1 33F      1.560000
     49 H1          4.9470    4.8120   -1.5200 ha        1 33F      0.103000
     50 H2          4.2660    2.8420    2.0150 ha        1 33F      0.091500
     51 H3          7.2950    4.5340   -1.2500 ha        1 33F      0.103000
     52 H4          6.6130    2.5700    2.2760 ha        1 33F      0.102000
     53 H5         -1.4110    1.3320   -7.3140 ha        1 33F      0.103000
     54 H6         -4.8240    2.9780   -5.8160 ha        1 33F      0.102000
     55 H7         -0.2940    1.7530   -5.2680 ha        1 33F      0.103000
     56 H8         -3.7400    3.4100   -3.7670 ha        1 33F      0.111500
     57 H9         -0.6830   -2.9740    3.6760 ha        1 33F      0.103000
     58 H10         0.1670   -1.2690    2.2790 ha        1 33F      0.103000
     59 H19        -2.6170   -0.8980   -1.0080 h1        1 33F      0.071700
     60 H19A       -2.8940    0.4810   -0.2860 h1        1 33F      0.071700
     61 H20        -2.6600    0.9190   -2.5120 h1        1 33F      0.058700
     62 H20A       -1.2780    0.0640   -2.5600 h1        1 33F      0.058700
     63 H21        -0.9330    1.5010    0.9640 h1        1 33F      0.074200
     64 H21A        0.4320    0.6150    0.9260 h1        1 33F      0.074200
     65 H22         0.8190    1.1370   -1.3430 h4        1 33F     -0.016200
     66 H23        -2.7410   -8.3020    6.5290 hc        1 33F      0.036367
     67 H23A       -1.7520   -7.8990    7.7380 hc        1 33F      0.036367
     68 H23B       -3.0990   -7.0600    7.4760 hc        1 33F      0.036367
     69 H24        -3.0660   -6.9740    3.1680 hc        1 33F      0.042033
     70 H24A       -1.5190   -7.0990    3.4650 hc        1 33F      0.042033
     71 H24B       -2.5370   -8.0680    4.1720 hc        1 33F      0.042033
     72 H25         2.5020    4.3660    0.9470 h1        1 33F      0.076700
     73 H25A        2.7400    4.8920   -0.5500 h1        1 33F      0.076700
     74 H26        -0.8350   -7.0970    5.7590 hc        1 33F      0.045200
     75 H26A       -1.3290   -5.8310    6.6280 hc        1 33F      0.045200
     76 H27        -3.4550   -6.1910    5.2870 h1        1 33F      0.089700
     77 HN34       -1.3510   -4.5670    4.7340 hn        1 33F      0.326500
     78 HN35        2.7340    2.2880   -0.7810 hn        1 33F      0.258700
@<TRIPOS>BOND
     1    1    3 3   
     2    1   49 1   
     3    2   11 3   
     4    2   50 1   
     5    3   51 1   
     6    4   12 3   
     7    4   52 1   
     8    5    7 3   
     9    5   53 1   
    10    6   13 3   
    11    6   54 1   
    12    7   55 1   
    13    8   14 3   
    14    8   56 1   
    15    9   10 3   
    16    9   57 1   
    17   10   58 1   
    18   11   25 1   
    19   12   40 1   
    20   13   41 1   
    21   14   48 1   
    22   15   17 1   
    23   15   30 3   
    24   16   31 3   
    25   16   32 1   
    26   17   34 1   
    27   17   36 2   
    28   18   35 2   
    29   18   37 2   
    30   19   20 1   
    31   19   32 1   
    32   19   59 1   
    33   19   60 1   
    34   20   33 1   
    35   20   61 1   
    36   20   62 1   
    37   21   22 1   
    38   21   32 1   
    39   21   63 1   
    40   21   64 1   
    41   22   33 2   
    42   22   65 1   
    43   23   26 1   
    44   23   66 1   
    45   23   67 1   
    46   23   68 1   
    47   24   27 1   
    48   24   69 1   
    49   24   70 1   
    50   24   71 1   
    51   25   35 1   
    52   25   72 1   
    53   25   73 1   
    54   26   27 1   
    55   26   74 1   
    56   26   75 1   
    57   27   34 1   
    58   27   76 1   
    59   28   40 1   
    60   28   42 1   
    61   28   43 1   
    62   28   44 1   
    63   29   41 1   
    64   29   45 1   
    65   29   46 1   
    66   29   47 1   
    67   33   48 1   
    68   34   77 1   
    69   35   78 1   
    70   38   48 2   
    71   39   48 2   
@<TRIPOS>SUBSTRUCTURE
     1 33F         1 TEMP              0 ****  ****    0 ROOT
