@<TRIPOS>MOLECULE
33F
   78    75     1     0     0
SMALL
bcc


@<TRIPOS>ATOM
      1 C1         -0.7390   -2.1400    0.9170 c2        1 33F     -0.031000
      2 C2          0.9290   -5.9970    2.8170 c1        1 33F     -0.127000
      3 C3          0.2210   -2.9900    1.1260 c1        1 33F     -0.157000
      4 C4          1.0510   -5.0250    2.1300 c1        1 33F     -0.160000
      5 C5        -10.1670    0.2530    0.7120 c2        1 33F     -0.181000
      6 C6         -9.1930   -2.0160    0.6320 c2        1 33F     -0.282000
      7 C7         -8.9410    0.8020    0.5480 c2        1 33F     -0.041000
      8 C8         -7.9210   -1.4760    0.4290 c1        1 33F     -0.150000
      9 C9         -6.7240   -4.2180    3.5080 c1        1 33F     -0.162000
     10 C10        -6.2270   -3.9370    2.1600 c3        1 33F     -0.213000
     11 C11        -0.9650   -0.9280    1.7490 c3        1 33F     -0.174000
     12 C12         1.1710   -3.8790    1.3190 c2        1 33F      0.193000
     13 C13       -10.2910   -1.1880    0.7630 c2        1 33F      0.225000
     14 C14        -7.7330   -0.0320    0.4340 c3        1 33F     -0.779000
     15 C15        -5.9790   -3.7460    4.5880 c2        1 33F     -0.333000
     16 C16        -4.9310   -3.1540    2.1160 c2        1 33F      0.110000
     17 C18        -4.3000    0.0200    3.2600 c2        1 33F      0.483000
     18 C19        -5.0790   -2.7320   -0.2900 c3        1 33F     -0.106000
     19 C20        -4.8500   -1.4960   -1.1910 c3        1 33F     -0.016000
     20 C21        -5.1940   -0.3910    5.6860 c1        1 33F      0.023000
     21 C22        -4.7630   -0.1390    4.5970 c1        1 33F     -0.312000
     22 C24        -7.5940   -3.9730    9.6270 c3        1 33F     -0.292000
     23 C25        -2.4260   -0.7270    1.9550 c1        1 33F     -0.115000
     24 C26       -10.1120   -3.9040    9.3690 c3        1 33F     -0.299000
     25 C27        -8.7980   -4.3580    8.9450 c1        1 33F     -0.118000
     26 C28         3.4640   -3.1590    1.1880 c3        1 33F      0.535000
     27 C29       -11.9350   -2.9510    1.0250 c3        1 33F      0.545000
     28 N30        -4.7040   -3.2320    4.4430 n2        1 33F      0.093000
     29 N31        -4.2050   -2.9630    3.3300 n2        1 33F     -0.215000
     30 N32        -4.4410   -2.6070    0.9990 n3        1 33F     -0.205000
     31 N33        -5.2900   -0.2570   -0.6270 n3        1 33F     -0.872000
     32 N34        -7.3400   -4.8930    6.2530 n         1 33F     -0.407000
     33 N35        -2.8900   -0.1860    3.0640 n         1 33F     -0.215000
     34 O36        -6.3480   -2.9120    6.8190 o         1 33F     -0.468000
     35 O37        -5.0310    0.2920    2.2960 o         1 33F     -0.323000
     36 O40         2.3610   -3.7740    0.5760 os        1 33F     -0.250000
     37 O41       -11.5960   -1.5840    0.9330 os        1 33F     -0.251000
     38 F42         3.9460   -3.8820    2.2280 f         1 33F     -0.145000
     39 F43         4.4050   -3.0950    0.2150 f         1 33F     -0.145000
     40 F44         3.1830   -1.9040    1.6200 f         1 33F     -0.145000
     41 F45       -11.3470   -3.5430    2.0900 f         1 33F     -0.128667
     42 F46       -13.2790   -2.9410    1.1910 f         1 33F     -0.128667
     43 F47       -11.6220   -3.6220   -0.1080 f         1 33F     -0.128667
     44 S48        -6.6980    0.4370   -0.9380 s6        1 33F      2.828000
     45 H1         -0.3630   -0.9800    2.6990 hc        1 33F      0.119500
     46 H2         -0.5960   -0.0290    1.1700 hc        1 33F      0.119500
     47 H3         -1.4460   -2.2830    0.0770 ha        1 33F      0.153000
     48 H4          0.8230   -6.8580    3.4300 ha        1 33F      0.233000
     49 H5        -11.0830    0.8560    0.8050 ha        1 33F      0.169000
     50 H6         -9.3050   -3.1120    0.6700 ha        1 33F      0.163000
     51 H7         -8.8010    1.8980    0.5100 ha        1 33F      0.169000
     52 H8         -7.1230    0.1550    1.3880 h1        1 33F      0.249000
     53 H9         -7.0370   -3.3420    1.6250 hc        1 33F      0.178000
     54 H10        -6.1120   -4.9090    1.6050 hc        1 33F      0.178000
     55 H19        -6.1970   -2.8750   -0.1630 h1        1 33F      0.134000
     56 H19A       -5.4120   -1.6890   -2.1530 h1        1 33F      0.113500
     57 H20        -4.6510   -3.6310   -0.8190 h1        1 33F      0.134000
     58 H20A       -3.7520   -1.4120   -1.4360 h1        1 33F      0.113500
     59 H21        -5.5880   -0.6780    6.6390 ha        1 33F      0.269000
     60 H21A       -3.6470   -1.9550    1.0600 hn        1 33F      0.297000
     61 H22        -4.6970    0.0820    0.1030 hn        1 33F      0.272000
     62 H23       -10.8100   -5.9650    9.2260 ha        1 33F      0.042000
     63 H23A      -12.3500   -4.7570    7.5620 ha        1 33F      0.006000
     64 H23B      -11.7910   -4.9730    7.2390 ha        1 33F      0.006000
     65 H24A       -6.9930   -3.3630    8.8810 hc        1 33F      0.123667
     66 H24B       -6.9810   -4.8900    9.8420 hc        1 33F      0.123667
     67 H25        -0.4760   -0.5180    5.1810 ha        1 33F      0.006000
     68 H25A       -0.2980    0.0370    4.8360 ha        1 33F      0.006000
     69 H26       -10.1410   -3.3570   10.3620 hc        1 33F      0.153000
     70 H26A      -10.4670   -3.1520    8.5940 hc        1 33F      0.153000
     71 H27        -7.8600   -4.9140    7.1080 hn        1 33F      0.244000
     72 HN34       -7.6150   -5.4870    5.5090 hn        1 33F      0.244000
     73 HN35       -2.3220    0.0080    3.8720 hn        1 33F      0.208000
     74 C17        -6.5590   -3.8110    5.9630 c2        1 33F      0.398000
     75 O38        -7.2650   -0.0550   -2.1230 o         1 33F     -0.920500
     76 O39        -6.5840    1.8360   -0.8280 o         1 33F     -0.920500
     77 H24        -7.7150   -3.3840   10.5700 hc        1 33F      0.123667
     78 C23       -11.1430   -4.9360    9.4440 c1        1 33F     -0.021000
@<TRIPOS>BOND
     1    1    3 1   
     2    1   11 1   
     3    1   47 1   
     4    2    4 1   
     5    2   48 1   
     6    3   12 1   
     7    4   12 1   
     8    5    7 1   
     9    5   13 1   
    10    5   49 1   
    11    6    8 1   
    12    6   13 1   
    13    6   50 1   
    14    7   14 1   
    15    7   51 1   
    16    8   14 1   
    17    9   10 1   
    18    9   15 1   
    19   10   16 1   
    20   10   53 1   
    21   10   54 1   
    22   11   23 1   
    23   11   45 1   
    24   11   46 1   
    25   12   36 1   
    26   13   37 1   
    27   14   44 1   
    28   14   52 1   
    29   15   28 1   
    30   15   74 1   
    31   16   29 1   
    32   16   30 1   
    33   17   21 1   
    34   17   33 1   
    35   17   35 1   
    36   18   19 1   
    37   18   30 1   
    38   18   55 1   
    39   18   57 1   
    40   19   31 1   
    41   19   56 1   
    42   19   58 1   
    43   20   21 1   
    44   20   59 1   
    45   22   25 1   
    46   22   65 1   
    47   22   66 1   
    48   22   77 1   
    49   23   33 1   
    50   24   25 1   
    51   24   69 1   
    52   24   70 1   
    53   24   78 1   
    54   26   36 1   
    55   26   38 1   
    56   26   39 1   
    57   26   40 1   
    58   27   37 1   
    59   27   41 1   
    60   27   42 1   
    61   27   43 1   
    62   28   29 1   
    63   30   60 1   
    64   31   44 1   
    65   31   61 1   
    66   32   71 1   
    67   32   72 1   
    68   32   74 1   
    69   33   73 1   
    70   34   74 1   
    71   44   75 1   
    72   44   76 1   
    73   62   78 1   
    74   63   64 1   
    75   67   68 1   
@<TRIPOS>SUBSTRUCTURE
     1 33F         1 TEMP              0 ****  ****    0 ROOT
