@<TRIPOS>MOLECULE
33G
   53    57     1     0     0
SMALL
bcc


@<TRIPOS>ATOM
      1 F32         0.4700    1.0230    0.5160 f         1 33G     -0.125900
      2 C30         1.5610    0.2800    0.2200 ca        1 33G      0.137900
      3 C29         2.0100   -0.7010    1.1250 ca        1 33G     -0.149000
      4 C28         3.1360   -1.4540    0.8060 ca        1 33G     -0.102000
      5 C27         3.8180   -1.2420   -0.3900 ca        1 33G     -0.138000
      6 C31         2.2400    0.4950   -0.9930 ca        1 33G     -0.154000
      7 C26         3.3730   -0.2690   -1.2940 cp        1 33G     -0.038000
      8 C22         4.0820   -0.0500   -2.5550 cp        1 33G     -0.025000
      9 C21         3.3650    0.1290   -3.7470 ca        1 33G     -0.062000
     10 C20         4.0540    0.3390   -4.9460 ca        1 33G      0.003000
     11 C24         3.3330    0.5120   -6.1590 cg        1 33G      0.207800
     12 N25         2.7450    0.6530   -7.1520 n1        1 33G     -0.312800
     13 C19         5.4570    0.3850   -4.9650 ca        1 33G     -0.080000
     14 C23         5.4800   -0.0130   -2.5820 ca        1 33G     -0.102000
     15 C18         6.1740    0.2140   -3.7800 ca        1 33G     -0.121300
     16 C4          7.6870    0.2610   -3.7410 c3        1 33G      0.178800
     17 C3          8.0850    1.4550   -2.8750 ce        1 33G      0.099100
     18 C8          7.3450    2.6630   -3.0100 cg        1 33G      0.123500
     19 N9          6.7170    3.6380   -3.1140 n1        1 33G     -0.245800
     20 C2          9.0750    1.3790   -1.9480 c2        1 33G      0.111100
     21 N7          9.5190    2.4770   -1.0860 n4        1 33G     -0.712400
     22 C14         8.3190    0.3450   -5.1340 cy        1 33G     -0.090700
     23 C17         8.2280    1.6550   -5.9560 cy        1 33G     -0.089400
     24 C16         9.7670    1.7280   -6.0240 cy        1 33G     -0.092400
     25 C15         9.8670    0.4430   -5.1800 cy        1 33G     -0.089400
     26 C5          8.2250   -0.9600   -3.0810 cc        1 33G     -0.300600
     27 C10         7.9800   -2.3420   -3.2280 cd        1 33G     -0.004600
     28 C13         7.0540   -3.0530   -4.1230 c3        1 33G     -0.058800
     29 N11         8.8420   -2.9790   -2.3200 na        1 33G     -0.004600
     30 N12         9.6110   -2.1450   -1.6200 nd        1 33G     -0.448800
     31 C6          9.2600   -0.9050   -2.0740 cc        1 33G      0.466600
     32 O1          9.8680    0.2750   -1.6440 os        1 33G     -0.312400
     33 H1          1.4650   -0.8650    2.0670 ha        1 33G      0.163000
     34 H2          3.4860   -2.2290    1.5070 ha        1 33G      0.147000
     35 H3          4.7000   -1.8530   -0.6330 ha        1 33G      0.133000
     36 H4          1.8750    1.2640   -1.6900 ha        1 33G      0.156000
     37 H5          2.2630    0.0950   -3.7380 ha        1 33G      0.168000
     38 H6          5.9700    0.5620   -5.9240 ha        1 33G      0.159000
     39 H7          6.0410   -0.1700   -1.6470 ha        1 33G      0.137000
     40 H10         8.7940    3.2020   -1.0330 hn        1 33G      0.480800
     41 H11        10.3850    2.8770   -1.4730 hn        1 33G      0.480800
     42 H13         7.9440   -0.5370   -5.7130 hc        1 33G      0.084700
     43 H14         7.7430    1.5170   -6.9470 hc        1 33G      0.058950
     44 H15         7.7510    2.5080   -5.4340 hc        1 33G      0.058950
     45 H16        10.1770    1.6270   -7.0520 hc        1 33G      0.060700
     46 H17        10.2030    2.6280   -5.5430 hc        1 33G      0.060700
     47 H18        10.3420    0.5800   -4.1860 hc        1 33G      0.058950
     48 H19        10.3490   -0.4100   -5.7040 hc        1 33G      0.058950
     49 H20         7.6220   -3.6090   -4.9120 hc        1 33G      0.077700
     50 H21         6.4230   -3.7840   -3.5580 hc        1 33G      0.077700
     51 H22         6.3810   -2.3090   -4.6230 hc        1 33G      0.077700
     52 H23         8.9390   -3.9630   -2.1850 hn        1 33G      0.350700
     53 H73         9.7180    2.1070   -0.1440 hn        1 33G      0.480800
@<TRIPOS>BOND
     1    1    2 1   
     2    2    3 ar  
     3    2    6 ar  
     4    3    4 ar  
     5    3   33 1   
     6    4    5 ar  
     7    4   34 1   
     8    5    7 ar  
     9    5   35 1   
    10    6    7 ar  
    11    6   36 1   
    12    7    8 1   
    13    8    9 ar  
    14    8   14 ar  
    15    9   10 ar  
    16    9   37 1   
    17   10   11 1   
    18   10   13 ar  
    19   11   12 3   
    20   13   15 ar  
    21   13   38 1   
    22   14   15 ar  
    23   14   39 1   
    24   15   16 1   
    25   16   17 1   
    26   16   22 1   
    27   16   26 1   
    28   17   18 1   
    29   17   20 2   
    30   18   19 3   
    31   20   21 1   
    32   20   32 1   
    33   21   40 1   
    34   21   41 1   
    35   21   53 1   
    36   22   23 1   
    37   22   25 1   
    38   22   42 1   
    39   23   24 1   
    40   23   43 1   
    41   23   44 1   
    42   24   25 1   
    43   24   45 1   
    44   24   46 1   
    45   25   47 1   
    46   25   48 1   
    47   26   27 2   
    48   26   31 1   
    49   27   28 1   
    50   27   29 1   
    51   28   49 1   
    52   28   50 1   
    53   28   51 1   
    54   29   30 1   
    55   29   52 1   
    56   30   31 2   
    57   31   32 1   
@<TRIPOS>SUBSTRUCTURE
     1 33G         1 TEMP              0 ****  ****    0 ROOT
