@<TRIPOS>MOLECULE
33G
   53    57     1     0     0
SMALL
bcc


@<TRIPOS>ATOM
      1 F32         0.4690    0.9100    0.5210 f         1 33G     -0.125900
      2 C30         1.5660    0.1770    0.2210 ca        1 33G      0.137900
      3 C29         2.0270   -0.8010    1.1230 ca        1 33G     -0.149000
      4 C28         3.1580   -1.5440    0.7990 ca        1 33G     -0.102000
      5 C27         3.8340   -1.3240   -0.4000 ca        1 33G     -0.138000
      6 C31         2.2390    0.4000   -0.9950 ca        1 33G     -0.154000
      7 C26         3.3770   -0.3540   -1.3010 cp        1 33G     -0.038000
      8 C22         4.0800   -0.1270   -2.5640 cp        1 33G     -0.025000
      9 C21         3.3560    0.0460   -3.7530 ca        1 33G     -0.062000
     10 C20         4.0390    0.2650   -4.9540 ca        1 33G      0.003000
     11 C24         3.3130    0.4320   -6.1650 cg        1 33G      0.207800
     12 N25         2.7190    0.5690   -7.1560 n1        1 33G     -0.312800
     13 C19         5.4410    0.3220   -4.9790 ca        1 33G     -0.080000
     14 C23         5.4770   -0.0780   -2.5970 ca        1 33G     -0.102000
     15 C18         6.1650    0.1560   -3.7970 ca        1 33G     -0.121300
     16 C4          7.6770    0.2160   -3.7630 c3        1 33G      0.178800
     17 C3          8.0680    1.4120   -2.8960 ce        1 33G      0.099100
     18 C8          7.3160    2.6140   -3.0250 cg        1 33G      0.123500
     19 N9          6.6800    3.5840   -3.1250 n1        1 33G     -0.245800
     20 C2          9.0620    1.3430   -1.9720 c2        1 33G      0.111100
     21 N7          9.4990    2.4420   -1.1100 nz        1 33G     -0.712400
     22 C14         8.3030    0.3100   -5.1580 cy        1 33G     -0.090700
     23 C17         8.1970    1.6210   -5.9770 cy        1 33G     -0.089400
     24 C16         9.7340    1.7080   -6.0510 cy        1 33G     -0.092400
     25 C15         9.8500    0.4220   -5.2100 cy        1 33G     -0.089400
     26 C5          8.2290   -1.0010   -3.1080 cc        1 33G     -0.300600
     27 C10         7.9950   -2.3840   -3.2570 cd        1 33G     -0.004600
     28 C13         7.0720   -3.1010   -4.1510 c3        1 33G     -0.058800
     29 N11         8.8660   -3.0160   -2.3540 na        1 33G     -0.004600
     30 N12         9.6300   -2.1770   -1.6550 nd        1 33G     -0.448800
     31 C6          9.2670   -0.9390   -2.1050 cc        1 33G      0.466600
     32 O1          9.8660    0.2450   -1.6750 os        1 33G     -0.312400
     33 H1          1.4860   -0.9700    2.0660 ha        1 33G      0.163000
     34 H2          3.5180   -2.3160    1.4970 ha        1 33G      0.147000
     35 H3          4.7210   -1.9270   -0.6460 ha        1 33G      0.133000
     36 H4          1.8640    1.1660   -1.6890 ha        1 33G      0.156000
     37 H5          2.2540    0.0030   -3.7400 ha        1 33G      0.168000
     38 H6          5.9490    0.5050   -5.9390 ha        1 33G      0.159000
     39 H7          6.0420   -0.2310   -1.6640 ha        1 33G      0.137000
     40 H10         8.7690    3.1620   -1.0530 hn        1 33G      0.480800
     41 H11         9.7040    2.0730   -0.1690 hn        1 33G      0.480800
     42 H13         7.9340   -0.5740   -5.7380 hc        1 33G      0.084700
     43 H14         7.7090    1.4800   -6.9670 hc        1 33G      0.058950
     44 H15         7.7140    2.4680   -5.4510 hc        1 33G      0.058950
     45 H16        10.1420    1.6130   -7.0800 hc        1 33G      0.060700
     46 H17        10.1640    2.6110   -5.5690 hc        1 33G      0.060700
     47 H18        10.3280    0.5620   -4.2170 hc        1 33G      0.058950
     48 H19        10.3380   -0.4250   -5.7370 hc        1 33G      0.058950
     49 H20         7.6420   -3.6510   -4.9430 hc        1 33G      0.077700
     50 H21         6.4490   -3.8390   -3.5850 hc        1 33G      0.077700
     51 H22         6.3910   -2.3630   -4.6460 hc        1 33G      0.077700
     52 H23         8.9720   -4.0000   -2.2210 hn        1 33G      0.350700
     53 H73        10.3610    2.8500   -1.4980 hn        1 33G      0.480800
@<TRIPOS>BOND
     1    1    2 1   
     2    2    3 ar  
     3    2    6 ar  
     4    3    4 ar  
     5    3   33 1   
     6    4    5 ar  
     7    4   34 1   
     8    5    7 ar  
     9    5   35 1   
    10    6    7 ar  
    11    6   36 1   
    12    7    8 1   
    13    8    9 ar  
    14    8   14 ar  
    15    9   10 ar  
    16    9   37 1   
    17   10   11 1   
    18   10   13 ar  
    19   11   12 3   
    20   13   15 ar  
    21   13   38 1   
    22   14   15 ar  
    23   14   39 1   
    24   15   16 1   
    25   16   17 1   
    26   16   22 1   
    27   16   26 1   
    28   17   18 1   
    29   17   20 2   
    30   18   19 3   
    31   20   21 1   
    32   20   32 1   
    33   21   40 1   
    34   21   41 1   
    35   21   53 1   
    36   22   23 1   
    37   22   25 1   
    38   22   42 1   
    39   23   24 1   
    40   23   43 1   
    41   23   44 1   
    42   24   25 1   
    43   24   45 1   
    44   24   46 1   
    45   25   47 1   
    46   25   48 1   
    47   26   27 2   
    48   26   31 1   
    49   27   28 1   
    50   27   29 1   
    51   28   49 1   
    52   28   50 1   
    53   28   51 1   
    54   29   30 1   
    55   29   52 1   
    56   30   31 2   
    57   31   32 1   
@<TRIPOS>SUBSTRUCTURE
     1 33G         1 TEMP              0 ****  ****    0 ROOT
