@<TRIPOS>MOLECULE
33H
   63    62     1     0     0
SMALL
bcc


@<TRIPOS>ATOM
      1 C1          0.1810   -0.1960   -0.0430 c2        1 33H     -0.034000
      2 C2         -0.3420    0.5600   -2.2790 c2        1 33H      0.310000
      3 C3         -1.3170    0.5620   -3.4740 c3        1 33H      0.004000
      4 O1         -0.9430   -0.5950   -4.2870 os        1 33H     -0.162000
      5 O2          0.5930    1.3870   -2.2700 o         1 33H     -0.372000
      6 O3         -2.6140   -0.6520    1.4010 o         1 33H     -0.540000
      7 C11         2.2990    2.5280   -5.0000 c2        1 33H     -0.226000
      8 C12        -1.1540    1.8110   -4.3270 c3        1 33H     -0.213000
      9 C13         1.6100   -0.3470    0.0180 c2        1 33H     -0.097000
     10 C14         2.0830   -0.1910    1.3120 c2        1 33H     -0.353000
     11 C15        -0.3580    0.0870    1.2140 c2        1 33H     -0.356000
     12 C16        -1.8220    0.3210    1.5460 c2        1 33H      0.382000
     13 C17         3.4050   -0.2830    1.7200 c1        1 33H     -0.037000
     14 C18         4.5480   -0.3630    2.0740 c1        1 33H     -0.213000
     15 C19         5.9220   -0.4540    2.5060 c3        1 33H      0.074000
     16 C20         6.7460    0.6560    1.8550 c3        1 33H     -0.201000
     17 C21         6.5050   -1.8090    2.1030 c3        1 33H     -0.201000
     18 C22         6.0000   -0.3090    4.0250 c3        1 33H     -0.201000
     19 C23        -2.4730    2.2610   -4.9500 c3        1 33H      0.030000
     20 C24        -2.2970    3.5900   -5.6640 c3        1 33H     -0.208000
     21 N1         -0.5590   -0.3250   -1.2430 n         1 33H     -0.227000
     22 C4         -1.9380   -1.3120   -4.7420 c1        1 33H     -0.086000
     23 C5         -1.4860   -1.4370   -1.3180 c3        1 33H     -0.032000
     24 C6         -0.8690   -2.7300   -1.7580 c2        1 33H     -0.154000
     25 C7         -1.4340   -3.5120   -2.6820 c2        1 33H     -0.204000
     26 C8         -0.9000   -4.8370   -3.0800 c3        1 33H     -0.126000
     27 C9         -0.8290   -4.9780   -4.5810 c3        1 33H     -0.208000
     28 C10         3.3240    3.3690   -5.0410 c2        1 33H     -0.226000
     29 S1          0.8210    0.1430    2.3800 ss        1 33H      0.621000
     30 O4         -2.1530    1.4610    1.9610 o         1 33H     -0.540000
     31 O5         -2.9390    1.3380   -5.9260 oh        1 33H     -0.347000
     32 H1         -2.3830    0.4570   -3.1300 h1        1 33H      0.137000
     33 H2          1.7830    2.2550   -4.0640 ha        1 33H      0.112500
     34 H3          1.8970    2.0440   -5.9010 ha        1 33H      0.112500
     35 H4         -0.7560    2.6420   -3.6840 hc        1 33H      0.123500
     36 H5         -0.3970    1.6180   -5.1320 hc        1 33H      0.123500
     37 H6          2.2310   -0.5340   -0.8600 ha        1 33H      0.151000
     38 H7          6.7100    0.5640    0.7440 hc        1 33H      0.074000
     39 H8          7.8090    0.5850    2.1890 hc        1 33H      0.074000
     40 H9          6.3430    1.6560    2.1440 hc        1 33H      0.074000
     41 H10         6.4660   -1.9320    0.9950 hc        1 33H      0.074000
     42 H11         5.9240   -2.6350    2.5760 hc        1 33H      0.074000
     43 H12         7.5680   -1.8770    2.4380 hc        1 33H      0.074000
     44 H13         7.0630   -0.3780    4.3570 hc        1 33H      0.074000
     45 H14         5.5870    0.6780    4.3400 hc        1 33H      0.074000
     46 H15         5.4130   -1.1170    4.5210 hc        1 33H      0.074000
     47 H16        -3.2530    2.3650   -4.1410 h1        1 33H      0.077000
     48 H17        -1.5080    3.5070   -6.4480 hc        1 33H      0.081000
     49 H18        -3.2540    3.8860   -6.1540 hc        1 33H      0.081000
     50 H19        -2.0010    4.3740   -4.9270 hc        1 33H      0.081000
     51 H20        -2.3400   -1.1710   -2.0040 h1        1 33H      0.142000
     52 H21        -1.5020   -2.1700   -5.3170 ha        1 33H      0.043000
     53 H22        -1.9260   -1.5920   -0.2760 h1        1 33H      0.142000
     54 H23         0.0620   -3.0170   -1.2420 ha        1 33H      0.131000
     55 H24        -2.3630   -3.2070   -3.1960 ha        1 33H      0.125000
     56 H25         0.1200   -5.0010   -2.6390 hc        1 33H      0.080000
     57 H26        -1.5720   -5.6360   -2.6620 hc        1 33H      0.080000
     58 H27        -1.8380   -4.8370   -5.0390 hc        1 33H      0.068667
     59 H28        -0.4530   -5.9930   -4.8570 hc        1 33H      0.068667
     60 H29         3.8370    3.6380   -5.9740 ha        1 33H      0.112500
     61 H30        -0.1390   -4.2150   -5.0160 hc        1 33H      0.068667
     62 H31         3.7270    3.8510   -4.1410 ha        1 33H      0.112500
     63 H33        -3.0860    0.4960   -5.4690 ho        1 33H      0.219000
@<TRIPOS>BOND
     1    1    9 1   
     2    1   11 1   
     3    1   21 1   
     4    2    3 1   
     5    2    5 1   
     6    2   21 1   
     7    3    4 1   
     8    3    8 1   
     9    3   32 1   
    10    4   22 1   
    11    6   12 1   
    12    7   28 1   
    13    7   33 1   
    14    7   34 1   
    15    8   19 1   
    16    8   35 1   
    17    8   36 1   
    18    9   10 1   
    19    9   37 1   
    20   10   13 1   
    21   10   29 1   
    22   11   12 1   
    23   11   29 1   
    24   12   30 1   
    25   13   14 1   
    26   14   15 1   
    27   15   16 1   
    28   15   17 1   
    29   15   18 1   
    30   16   38 1   
    31   16   39 1   
    32   16   40 1   
    33   17   41 1   
    34   17   42 1   
    35   17   43 1   
    36   18   44 1   
    37   18   45 1   
    38   18   46 1   
    39   19   20 1   
    40   19   31 1   
    41   19   47 1   
    42   20   48 1   
    43   20   49 1   
    44   20   50 1   
    45   21   23 1   
    46   22   52 1   
    47   23   24 1   
    48   23   51 1   
    49   23   53 1   
    50   24   25 1   
    51   24   54 1   
    52   25   26 1   
    53   25   55 1   
    54   26   27 1   
    55   26   56 1   
    56   26   57 1   
    57   27   58 1   
    58   27   59 1   
    59   27   61 1   
    60   28   60 1   
    61   28   62 1   
    62   31   63 1   
@<TRIPOS>SUBSTRUCTURE
     1 33H         1 TEMP              0 ****  ****    0 ROOT
