@<TRIPOS>MOLECULE
33H
   63    65     1     0     0
SMALL
bcc


@<TRIPOS>ATOM
      1 C1          0.4570   -0.2070   -0.2610 cc        1 33H     -0.018400
      2 C2         -0.4810    1.2950   -1.9140 c         1 33H      0.689500
      3 C3         -1.5750    1.5320   -2.9650 c3        1 33H      0.074100
      4 O1         -2.0040    0.3580   -3.6480 os        1 33H     -0.444600
      5 O2          0.1250    2.2880   -1.4600 o         1 33H     -0.653500
      6 O3         -2.4490   -0.7070    0.2780 o         1 33H     -0.820300
      7 C11         0.2870   -1.3850   -4.3250 c3        1 33H     -0.073900
      8 C12        -1.0860    2.5080   -4.0290 c3        1 33H     -0.116400
      9 C13         1.8790   -0.0610   -0.1100 cc        1 33H     -0.103000
     10 C14         2.2810   -0.3400    1.1900 cd        1 33H     -0.098100
     11 C15        -0.1490   -0.5820    0.9430 cd        1 33H     -0.141700
     12 C16        -1.6180   -0.8300    1.2200 c         1 33H      0.935200
     13 C17         3.5840   -0.2950    1.6650 ch        1 33H     -0.032000
     14 C18         4.7100   -0.2570    2.0770 c1        1 33H     -0.187100
     15 C19         6.0620   -0.2110    2.5800 c3        1 33H      0.048100
     16 C20         6.4290   -1.5530    3.2130 c3        1 33H     -0.082767
     17 C21         6.1870    0.8880    3.6350 c3        1 33H     -0.082767
     18 C22         7.0310    0.0830    1.4360 c3        1 33H     -0.082767
     19 C23        -2.2330    3.0910   -4.8460 c3        1 33H      0.150100
     20 C24        -1.7980    4.3590   -5.5610 c3        1 33H     -0.092100
     21 N1         -0.1880    0.0040   -1.5030 n         1 33H     -0.324000
     22 C4         -2.1920   -0.7460   -2.7660 c3        1 33H      0.113400
     23 C5         -0.8870   -1.1500   -2.0630 c3        1 33H      0.084700
     24 C6          0.0440   -2.0020   -2.9580 c3        1 33H     -0.072700
     25 C7         -0.5160   -3.4100   -3.1040 c3        1 33H     -0.073900
     26 C8          0.4120   -4.2770   -3.9310 c3        1 33H     -0.074900
     27 C9          0.6820   -3.6600   -5.2880 c3        1 33H     -0.074400
     28 C10         1.2180   -2.2490   -5.1530 c3        1 33H     -0.074900
     29 S1          0.9720   -0.7480    2.1600 ss        1 33H      0.121200
     30 O4         -1.9290   -1.1620    2.3980 o         1 33H     -0.820300
     31 O5         -2.6770    2.1920   -5.8560 oh        1 33H     -0.622800
     32 H1         -2.4550    1.9570   -2.3970 h1        1 33H      0.073700
     33 H2         -0.6900   -1.2610   -4.8630 hc        1 33H      0.045700
     34 H3          0.7280   -0.3620   -4.2010 hc        1 33H      0.045700
     35 H4         -0.3740    1.9800   -4.7150 hc        1 33H      0.074700
     36 H5         -0.5340    3.3370   -3.5100 hc        1 33H      0.074700
     37 H6          2.5420    0.2480   -0.9190 ha        1 33H      0.149000
     38 H7          5.7390   -1.7830    4.0590 hc        1 33H      0.034589
     39 H8          7.4750   -1.5150    3.6010 hc        1 33H      0.034589
     40 H9          6.3540   -2.3700    2.4570 hc        1 33H      0.034589
     41 H10         5.4950    0.6880    4.4860 hc        1 33H      0.034589
     42 H11         5.9310    1.8790    3.1920 hc        1 33H      0.034589
     43 H12         7.2340    0.9250    4.0210 hc        1 33H      0.034589
     44 H13         6.9630   -0.7140    0.6580 hc        1 33H      0.034589
     45 H14         6.7850    1.0640    0.9640 hc        1 33H      0.034589
     46 H15         8.0760    0.1210    1.8250 hc        1 33H      0.034589
     47 H16        -3.1050    3.3190   -4.1660 h1        1 33H      0.031700
     48 H17        -1.5630    5.1500   -4.8100 hc        1 33H      0.038033
     49 H18        -2.6160    4.7170   -6.2300 hc        1 33H      0.038033
     50 H19        -0.8930    4.1620   -6.1820 hc        1 33H      0.038033
     51 H20        -2.5600   -1.5680   -3.4330 h1        1 33H      0.078700
     52 H21        -2.9620   -0.4910   -1.9860 h1        1 33H      0.078700
     53 H22        -1.2060   -1.8110   -1.1920 h1        1 33H      0.113700
     54 H23         1.0400   -2.0880   -2.4330 hc        1 33H      0.059700
     55 H24        -0.6500   -3.8680   -2.0890 hc        1 33H      0.045700
     56 H25        -1.5240   -3.3730   -3.5930 hc        1 33H      0.045700
     57 H26        -0.0430   -5.2920   -4.0640 hc        1 33H      0.032450
     58 H27         1.3820   -4.4120   -3.3840 hc        1 33H      0.032450
     59 H28         1.4200   -4.2920   -5.8490 hc        1 33H      0.029200
     60 H29        -0.2680   -3.6420   -5.8850 hc        1 33H      0.029200
     61 H30         2.2300   -2.2790   -4.6700 hc        1 33H      0.032450
     62 H31         1.3430   -1.7960   -6.1700 hc        1 33H      0.032450
     63 H33        -2.7600    1.3220   -5.4420 ho        1 33H      0.424000
@<TRIPOS>BOND
     1    1    9 1   
     2    1   11 2   
     3    1   21 1   
     4    2    3 1   
     5    2    5 2   
     6    2   21 1   
     7    3    4 1   
     8    3    8 1   
     9    3   32 1   
    10    4   22 1   
    11    6   12 1   
    12    7   24 1   
    13    7   28 1   
    14    7   33 1   
    15    7   34 1   
    16    8   19 1   
    17    8   35 1   
    18    8   36 1   
    19    9   10 2   
    20    9   37 1   
    21   10   13 1   
    22   10   29 1   
    23   11   12 1   
    24   11   29 1   
    25   12   30 1   
    26   13   14 3   
    27   14   15 1   
    28   15   16 1   
    29   15   17 1   
    30   15   18 1   
    31   16   38 1   
    32   16   39 1   
    33   16   40 1   
    34   17   41 1   
    35   17   42 1   
    36   17   43 1   
    37   18   44 1   
    38   18   45 1   
    39   18   46 1   
    40   19   20 1   
    41   19   31 1   
    42   19   47 1   
    43   20   48 1   
    44   20   49 1   
    45   20   50 1   
    46   21   23 1   
    47   22   23 1   
    48   22   51 1   
    49   22   52 1   
    50   23   24 1   
    51   23   53 1   
    52   24   25 1   
    53   24   54 1   
    54   25   26 1   
    55   25   55 1   
    56   25   56 1   
    57   26   27 1   
    58   26   57 1   
    59   26   58 1   
    60   27   28 1   
    61   27   59 1   
    62   27   60 1   
    63   28   61 1   
    64   28   62 1   
    65   31   63 1   
@<TRIPOS>SUBSTRUCTURE
     1 33H         1 TEMP              0 ****  ****    0 ROOT
