@<TRIPOS>MOLECULE
33J
   48    51     1     0     0
SMALL
bcc


@<TRIPOS>ATOM
      1 C1          0.1550    0.8800    0.1250 c2        1 33J      0.382000
      2 C2          1.6300    0.5420    0.1210 c2        1 33J     -0.403000
      3 C3          3.9170   -0.0430    0.7820 c2        1 33J     -0.432000
      4 O1         -0.2780    1.6210    1.0500 o         1 33J     -0.557500
      5 O2         -0.5730    0.3960   -0.7890 o         1 33J     -0.557500
      6 C11         3.5880    2.8330   -2.2630 c3        1 33J     -0.148000
      7 C12         4.4270    3.7690   -3.1070 c3        1 33J     -0.150000
      8 C13         4.3230    3.3840   -4.5660 c3        1 33J     -0.152000
      9 C14         2.9210    3.6190   -5.0830 c3        1 33J     -0.133000
     10 C15         1.8310    3.1410   -4.1640 cy        1 33J     -0.123000
     11 C16         5.1520   -0.3970    1.5170 c3        1 33J     -0.066000
     12 C17         6.0850   -1.1970    0.6720 c2        1 33J     -0.075000
     13 C18         7.4060   -0.9140    0.6210 c2        1 33J     -0.224000
     14 C19         7.9330    0.2280    1.3190 c2        1 33J     -0.020000
     15 C20         7.1140    1.0350    2.0500 c2        1 33J     -0.249000
     16 C21         5.7280    0.7610    2.2220 c1        1 33J     -0.057000
     17 S1          2.5020    0.4430    1.5350 ss        1 33J      0.662000
     18 C4          3.7660   -0.0930   -0.5920 c2        1 33J     -0.129000
     19 C5          2.4260    0.2530   -0.9900 c2        1 33J     -0.016000
     20 N1          2.0330    0.2470   -2.3550 n         1 33J     -0.228000
     21 C6          1.5170   -0.9960   -2.8120 c2        1 33J      0.327000
     22 C7          0.1920   -1.0440   -3.5270 c3        1 33J     -0.262000
     23 C8          1.3350    1.6940   -4.3630 cy        1 33J     -0.175000
     24 C9          1.3890    1.4570   -2.8200 cy        1 33J     -0.010000
     25 C10         2.1380    2.8380   -2.6690 cy        1 33J     -0.090000
     26 H4          3.6670    3.1300   -1.1830 hc        1 33J      0.097000
     27 H5          4.0860    4.8280   -2.9680 hc        1 33J      0.068500
     28 H6          5.4960    3.7130   -2.7740 hc        1 33J      0.068500
     29 H7          4.5950    2.3020   -4.6860 hc        1 33J      0.071000
     30 H8          5.0500    3.9830   -5.1750 hc        1 33J      0.071000
     31 H9          2.7890    4.7230   -5.2530 hc        1 33J      0.065000
     32 H10         2.8050    3.1190   -6.0820 hc        1 33J      0.065000
     33 H11         0.9720    3.8580   -4.2340 hc        1 33J      0.082000
     34 H12         4.8590   -1.0860    2.3870 hc        1 33J      0.159000
     35 H13         5.6420   -2.0220    0.0920 ha        1 33J      0.146000
     36 H14         8.1020   -1.5210    0.0250 ha        1 33J      0.125000
     37 H15         9.0140    0.4230    1.2300 ha        1 33J      0.115000
     38 H16         7.5090    1.9350    2.5460 ha        1 33J      0.136000
     39 H17         4.5390   -0.3810   -1.3070 ha        1 33J      0.143000
     40 H18         0.2470   -0.5320   -4.5150 hc        1 33J      0.109667
     41 H19        -0.0940   -2.1110   -3.6870 hc        1 33J      0.109667
     42 H20        -0.5800   -0.5440   -2.8800 hc        1 33J      0.109667
     43 H21         0.3110    1.6200   -4.7870 hc        1 33J      0.084000
     44 H22         2.0370    1.0650   -4.9500 hc        1 33J      0.084000
     45 H23         0.3570    1.5440   -2.3670 h1        1 33J      0.146000
     46 H2          1.5610    3.5110   -1.9890 hc        1 33J      0.102000
     47 O3          2.1760   -2.0400   -2.6400 o         1 33J     -0.371000
     48 H3          4.0270    1.8020   -2.3460 hc        1 33J      0.097000
@<TRIPOS>BOND
     1    1    2 1   
     2    1    4 1   
     3    1    5 1   
     4    2   17 1   
     5    2   19 1   
     6    3   11 1   
     7    3   17 1   
     8    3   18 1   
     9    6    7 1   
    10    6   25 1   
    11    6   26 1   
    12    6   48 1   
    13    7    8 1   
    14    7   27 1   
    15    7   28 1   
    16    8    9 1   
    17    8   29 1   
    18    8   30 1   
    19    9   10 1   
    20    9   31 1   
    21    9   32 1   
    22   10   23 1   
    23   10   25 1   
    24   10   33 1   
    25   11   12 1   
    26   11   16 1   
    27   11   34 1   
    28   12   13 1   
    29   12   35 1   
    30   13   14 1   
    31   13   36 1   
    32   14   15 1   
    33   14   37 1   
    34   15   16 1   
    35   15   38 1   
    36   18   19 1   
    37   18   39 1   
    38   19   20 1   
    39   20   21 1   
    40   20   24 1   
    41   21   22 1   
    42   21   47 1   
    43   22   40 1   
    44   22   41 1   
    45   22   42 1   
    46   23   24 1   
    47   23   43 1   
    48   23   44 1   
    49   24   25 1   
    50   24   45 1   
    51   25   46 1   
@<TRIPOS>SUBSTRUCTURE
     1 33J         1 TEMP              0 ****  ****    0 ROOT
