@<TRIPOS>MOLECULE
33J
   48    51     1     0     0
SMALL
bcc


@<TRIPOS>ATOM
      1 C1          0.1790    0.9290    0.1740 c2        1 33J      0.382000
      2 C2          1.6490    0.5720    0.1630 c2        1 33J     -0.404000
      3 C3          3.9320   -0.0430    0.8130 c2        1 33J     -0.432000
      4 O1         -0.2400    1.6760    1.0990 o         1 33J     -0.557500
      5 O2         -0.5600    0.4530   -0.7360 o         1 33J     -0.557500
      6 C11         3.6250    2.8350   -2.2330 c3        1 33J     -0.148000
      7 C12         4.4730    3.7600   -3.0820 c3        1 33J     -0.150000
      8 C13         4.3570    3.3740   -4.5400 c3        1 33J     -0.152000
      9 C14         2.9560    3.6270   -5.0510 c3        1 33J     -0.133000
     10 C15         1.8630    3.1640   -4.1260 cy        1 33J     -0.123000
     11 C16         5.1660   -0.4120    1.5430 c3        1 33J     -0.066000
     12 C17         6.0860   -1.2220    0.6930 c2        1 33J     -0.075000
     13 C18         7.4100   -0.9540    0.6370 c2        1 33J     -0.224000
     14 C19         7.9530    0.1810    1.3340 c2        1 33J     -0.020000
     15 C20         7.1470    0.9970    2.0690 c2        1 33J     -0.249000
     16 C21         5.7590    0.7390    2.2470 c1        1 33J     -0.057000
     17 S1          2.5270    0.4620    1.5720 ss        1 33J      0.662000
     18 C4          3.7740   -0.0910   -0.5600 c2        1 33J     -0.129000
     19 C5          2.4370    0.2710   -0.9510 c2        1 33J     -0.016000
     20 N1          2.0370    0.2690   -2.3150 n         1 33J     -0.228000
     21 C6          1.5030   -0.9680   -2.7680 c2        1 33J      0.327000
     22 C7          0.1740   -0.9980   -3.4770 c3        1 33J     -0.262000
     23 C8          1.3470    1.7240   -4.3210 cy        1 33J     -0.175000
     24 C9          1.4060    1.4870   -2.7780 cy        1 33J     -0.010000
     25 C10         2.1740    2.8580   -2.6320 cy        1 33J     -0.090000
     26 H4          4.0500    1.7990   -2.3170 hc        1 33J      0.097000
     27 H5          4.1460    4.8230   -2.9420 hc        1 33J      0.068500
     28 H6          5.5420    3.6890   -2.7540 hc        1 33J      0.068500
     29 H7          5.0880    3.9630   -5.1530 hc        1 33J      0.071000
     30 H8          4.6140    2.2880   -4.6600 hc        1 33J      0.071000
     31 H9          2.8280    3.1270   -6.0480 hc        1 33J      0.065000
     32 H10         2.8370    4.7320   -5.2210 hc        1 33J      0.065000
     33 H11         1.0130    3.8920   -4.1920 hc        1 33J      0.082000
     34 H12         4.8680   -1.0980    2.4130 hc        1 33J      0.159000
     35 H13         5.6310   -2.0410    0.1140 ha        1 33J      0.146000
     36 H14         8.0960   -1.5680    0.0370 ha        1 33J      0.125000
     37 H15         9.0360    0.3640    1.2400 ha        1 33J      0.115000
     38 H16         7.5540    1.8920    2.5640 ha        1 33J      0.136000
     39 H17         4.5400   -0.3900   -1.2780 ha        1 33J      0.143000
     40 H18         0.2310   -0.4880   -4.4650 hc        1 33J      0.109667
     41 H19        -0.1270   -2.0620   -3.6350 hc        1 33J      0.109667
     42 H20        -0.5880   -0.4890   -2.8270 hc        1 33J      0.109667
     43 H21         0.3210    1.6620   -4.7390 hc        1 33J      0.084000
     44 H22         2.0390    1.0850   -4.9110 hc        1 33J      0.084000
     45 H23         0.3770    1.5880   -2.3200 h1        1 33J      0.146000
     46 H2          1.6090    3.5400   -1.9490 hc        1 33J      0.102000
     47 O3          2.1500   -2.0190   -2.5990 o         1 33J     -0.371000
     48 H3          3.7140    3.1320   -1.1540 hc        1 33J      0.097000
@<TRIPOS>BOND
     1    1    2 1   
     2    1    4 1   
     3    1    5 1   
     4    2   17 1   
     5    2   19 1   
     6    3   11 1   
     7    3   17 1   
     8    3   18 1   
     9    6    7 1   
    10    6   25 1   
    11    6   26 1   
    12    6   48 1   
    13    7    8 1   
    14    7   27 1   
    15    7   28 1   
    16    8    9 1   
    17    8   29 1   
    18    8   30 1   
    19    9   10 1   
    20    9   31 1   
    21    9   32 1   
    22   10   23 1   
    23   10   25 1   
    24   10   33 1   
    25   11   12 1   
    26   11   16 1   
    27   11   34 1   
    28   12   13 1   
    29   12   35 1   
    30   13   14 1   
    31   13   36 1   
    32   14   15 1   
    33   14   37 1   
    34   15   16 1   
    35   15   38 1   
    36   18   19 1   
    37   18   39 1   
    38   19   20 1   
    39   20   21 1   
    40   20   24 1   
    41   21   22 1   
    42   21   47 1   
    43   22   40 1   
    44   22   41 1   
    45   22   42 1   
    46   23   24 1   
    47   23   43 1   
    48   23   44 1   
    49   24   25 1   
    50   24   45 1   
    51   25   46 1   
@<TRIPOS>SUBSTRUCTURE
     1 33J         1 TEMP              0 ****  ****    0 ROOT
