@<TRIPOS>MOLECULE
33K
   46    45     1     0     0
SMALL
bcc


@<TRIPOS>ATOM
      1 N12        -0.6200    0.5900    1.4010 nt        1 33K     -0.419000
      2 C13         0.0840    1.1920    2.4000 c2        1 33K      0.322000
      3 C15        -0.5370    2.3510    3.1370 c3        1 33K     -0.242000
      4 C21         5.1320    0.9100    2.3400 c3        1 33K     -0.019000
      5 C22         4.8540    2.0430    1.3550 c3        1 33K     -0.091000
      6 C24         5.1580    4.4290    2.0270 c1        1 33K      0.195000
      7 C26         4.3880    1.0920    3.6120 c2        1 33K     -0.523000
      8 O           4.6540   -0.1040   -1.2320 o         1 33K     -0.489500
      9 C03        -1.4020    1.2900   -2.4580 cu        1 33K      0.287000
     10 O04        -1.6470    2.2290   -3.1720 o         1 33K     -0.210000
     11 C05        -0.8610    0.0560   -1.9090 cx        1 33K     -0.019000
     12 C06        -1.3700   -1.2760   -2.3620 c3        1 33K     -0.139000
     13 C07        -0.8830   -2.4270   -1.5290 cx        1 33K     -0.116000
     14 N08         0.5540   -2.7760   -1.4880 ny        1 33K     -0.142000
     15 C09        -0.0930   -2.1990   -0.2540 cu        1 33K     -0.187000
     16 N10        -0.2940   -2.9450    0.8860 n2        1 33K     -0.314000
     17 C11        -0.4410   -3.4390    1.9530 c1        1 33K      0.090000
     18 O14         1.2390    0.7840    2.6900 o         1 33K     -0.481000
     19 N16         3.3840   -0.6240    1.4100 n7        1 33K     -0.096000
     20 C18         3.6270   -0.8020   -1.1330 c2        1 33K      0.363000
     21 O19         3.0810   -1.5300   -1.9980 o         1 33K     -0.489500
     22 C23         5.6400    3.2560    1.6850 c2        1 33K     -0.484000
     23 C25         4.8670    1.0740    4.8330 c1        1 33K      0.211000
     24 H1         -0.2560   -0.2020    0.9180 hn        1 33K      0.245000
     25 H2          0.1970    2.7450    3.8810 hc        1 33K      0.110000
     26 H3         -0.8090    3.1690    2.4270 hc        1 33K      0.110000
     27 H4          1.7520   -0.8860    0.1570 h4        1 33K      0.197000
     28 H5          2.7780   -0.5580    2.2220 hn        1 33K      0.278000
     29 H6          5.0850   -1.2720    2.4230 h1        1 33K      0.144000
     30 H7          5.3980   -0.5630    0.7500 h1        1 33K      0.144000
     31 H8          5.1270    1.7030    0.3140 hc        1 33K      0.115000
     32 H9          6.7400    3.1370    1.6030 ha        1 33K      0.189000
     33 H10         6.2410    0.8790    2.5490 hc        1 33K      0.113000
     34 H12        -1.5140    0.9220    1.1350 hn        1 33K      0.245000
     35 H13        -1.0640   -1.4280   -3.4340 hc        1 33K      0.123000
     36 H14        -2.4950   -1.2820   -2.3210 hc        1 33K      0.123000
     37 H15         1.2320   -2.1540   -1.9300 hn        1 33K      0.247000
     38 H16         0.8000   -3.7450   -1.6050 hn        1 33K      0.247000
     39 H18        -1.5380   -3.3220   -1.6680 hx        1 33K      0.128000
     40 H21         3.7560    2.2780    1.3540 hc        1 33K      0.115000
     41 H22         3.2950    1.2990    3.5020 ha        1 33K      0.223000
     42 C17         2.8650   -0.7630    0.2280 c2        1 33K      0.001000
     43 C20         4.7980   -0.4520    1.7040 c3        1 33K     -0.095000
     44 H122        0.1300    0.0480   -1.4050 h1        1 33K      0.173000
     45 H161       -1.4570    2.0160    3.6760 hc        1 33K      0.110000
     46 O02        -1.8590    0.9170   -1.2160 os        1 33K     -0.291000
@<TRIPOS>BOND
     1    1    2 1   
     2    1   24 1   
     3    1   34 1   
     4    2    3 1   
     5    2   18 1   
     6    3   25 1   
     7    3   26 1   
     8    3   45 1   
     9    4    5 1   
    10    4    7 1   
    11    4   33 1   
    12    4   43 1   
    13    5   22 1   
    14    5   31 1   
    15    5   40 1   
    16    6   22 1   
    17    7   23 1   
    18    7   41 1   
    19    8   20 1   
    20    9   10 1   
    21    9   11 1   
    22    9   46 1   
    23   11   12 1   
    24   11   44 1   
    25   11   46 1   
    26   12   13 1   
    27   12   35 1   
    28   12   36 1   
    29   13   14 1   
    30   13   15 1   
    31   13   39 1   
    32   14   15 1   
    33   14   37 1   
    34   14   38 1   
    35   15   16 1   
    36   16   17 1   
    37   19   28 1   
    38   19   42 1   
    39   19   43 1   
    40   20   21 1   
    41   20   42 1   
    42   22   32 1   
    43   27   42 1   
    44   29   43 1   
    45   30   43 1   
@<TRIPOS>SUBSTRUCTURE
     1 33K         1 TEMP              0 ****  ****    0 ROOT
