@<TRIPOS>MOLECULE
33K
   46    45     1     0     0
SMALL
bcc


@<TRIPOS>ATOM
      1 N12         0.1110    0.7120    1.3710 n         1 33K     -0.610000
      2 C13         1.0230    1.4050    0.6250 c         1 33K      0.657100
      3 C15         2.5070    1.3890    1.0260 c3        1 33K      0.092800
      4 C21         4.8960    1.0800    2.8350 c3        1 33K     -0.058500
      5 C22         5.5160    2.0840    1.7920 c3        1 33K      0.026900
      6 C24         4.5570    4.4350    2.9180 cc        1 33K      0.000000
      7 C26         4.0550    1.8960    3.8220 c2        1 33K     -0.192200
      8 O           5.1340   -0.9400    1.5830 os        1 33K     -0.434900
      9 C03        -1.5750    2.4420   -1.3770 c1        1 33K      0.917000
     10 O04        -1.2360    3.4050   -1.9840 o         1 33K     -0.463000
     11 C05        -2.8200   -3.2170   -4.2170 c1        1 33K     -0.110500
     12 C06        -2.0940   -2.9680   -3.2980 cg        1 33K     -0.159300
     13 C07        -1.2740   -2.6560   -2.2210 ce        1 33K     -0.076700
     14 N08         0.0240   -3.3420   -1.9940 n4        1 33K     -0.614400
     15 C09         0.5430   -2.6490   -0.6990 c1        1 33K      0.297600
     16 N10        -0.3340   -1.7620   -0.3010 n1        1 33K     -1.115500
     17 C11        -1.4280   -1.7360   -1.1970 cf        1 33K      0.528700
     18 O14         0.6640    2.1460   -0.3210 o         1 33K     -0.670100
     19 N16         2.9930    0.0620    1.3190 n3        1 33K     -0.755600
     20 C18         4.6450   -1.3520    0.3590 c         1 33K      0.705600
     21 O19         5.3620   -2.0830   -0.3100 o         1 33K     -0.564500
     22 C23         5.0740    3.3790    2.3000 cd        1 33K     -0.179300
     23 C25         4.2060    3.1790    3.5150 cc        1 33K     -0.174000
     24 H1         -0.8120    0.6240    1.0040 hn        1 33K      0.318000
     25 H2          1.7150   -0.0600    4.0330 ha        1 33K      0.002000
     26 H3          3.0660    1.8920    0.1830 h1        1 33K      0.078200
     27 H4          3.2410   -0.1840   -0.8240 h1        1 33K      0.110200
     28 H5          2.4990   -1.5900    0.0920 h1        1 33K      0.110200
     29 H6          1.1970   -0.4860    4.1330 ha        1 33K      0.002000
     30 H7          3.7300   -0.7270    3.1020 h2        1 33K      0.087700
     31 H8          6.6320    1.9940    1.7880 hc        1 33K      0.079200
     32 H9          4.4330    5.4970    2.9980 ha        1 33K      0.207000
     33 H10         5.7510    0.6200    3.4070 hc        1 33K      0.083700
     34 H12         0.4290   -0.0380    1.9400 hn        1 33K      0.318000
     35 H13        -2.9610   -0.0810    0.7970 ha        1 33K      0.002000
     36 H14        -3.1180    0.5170    1.0740 ha        1 33K      0.002000
     37 H15         0.6680   -3.1870   -2.7630 hn        1 33K      0.438300
     38 H16        -0.0990   -4.3370   -1.8380 hn        1 33K      0.438300
     39 H18        -2.2520   -1.0280   -1.0410 h4        1 33K      0.203000
     40 H21         5.1450    1.8870    0.7570 hc        1 33K      0.079200
     41 H22         3.4890    1.4150    4.6150 ha        1 33K      0.163000
     42 C17         3.2680   -0.7620    0.1390 c3        1 33K      0.055800
     43 C20         4.1280   -0.1020    2.2440 c3        1 33K      0.384300
     44 H122       -3.4650   -3.4340   -5.0310 ha        1 33K      0.175500
     45 H161        2.6020    2.0330    1.9480 h1        1 33K      0.078200
     46 O02        -1.9830    1.4810   -0.7970 o         1 33K     -0.463000
@<TRIPOS>BOND
     1    1    2 1   
     2    1   24 1   
     3    1   34 1   
     4    2    3 1   
     5    2   18 2   
     6    3   19 1   
     7    3   26 1   
     8    3   45 1   
     9    4    5 1   
    10    4    7 1   
    11    4   33 1   
    12    4   43 1   
    13    5   22 1   
    14    5   31 1   
    15    5   40 1   
    16    6   22 2   
    17    6   23 1   
    18    6   32 1   
    19    7   23 2   
    20    7   41 1   
    21    8   20 1   
    22    8   43 1   
    23    9   10 2   
    24    9   46 2   
    25   11   12 3   
    26   11   44 1   
    27   12   13 1   
    28   13   14 1   
    29   13   17 2   
    30   14   15 1   
    31   14   37 1   
    32   14   38 1   
    33   15   16 3   
    34   16   17 1   
    35   17   39 1   
    36   19   42 1   
    37   19   43 1   
    38   20   21 2   
    39   20   42 1   
    40   22   23 1   
    41   25   29 1   
    42   27   42 1   
    43   28   42 1   
    44   30   43 1   
    45   35   36 1   
@<TRIPOS>SUBSTRUCTURE
     1 33K         1 TEMP              0 ****  ****    0 ROOT
