@<TRIPOS>MOLECULE
33L
   47    48     1     0     0
SMALL
bcc


@<TRIPOS>ATOM
      1 CD1        -0.2360    1.6130   -0.7220 ca        1 33L     -0.122500
      2 CE1         1.1020    1.8390   -1.0450 ca        1 33L     -0.105000
      3 CZ          2.1140    1.4190   -0.1800 ca        1 33L     -0.062000
      4 CE2         1.7860    0.7670    1.0130 ca        1 33L     -0.105000
      5 CD2         0.4520    0.5430    1.3420 ca        1 33L     -0.122500
      6 CG         -0.5680    0.9620    0.4740 ca        1 33L     -0.223300
      7 CB         -1.9920    0.8270    0.8690 c3        1 33L     -0.031100
      8 CA         -2.3770   -0.6680    1.0250 c3        1 33L      0.078500
      9 C          -3.9010   -0.7590    1.1460 c         1 33L      0.543100
     10 O          -4.7120   -0.4850    0.2820 o         1 33L     -0.357100
     11 NAK        -4.4470   -1.2330    2.4890 ny        1 33L     -0.670800
     12 CAL        -5.9160   -1.0050    2.6210 c3        1 33L      0.075800
     13 CAM        -6.4840   -1.5300    3.9580 c3        1 33L      0.079800
     14 NAN        -7.9480   -1.3020    4.0880 nz        1 33L     -0.834600
     15 N          -1.8950   -1.4830   -0.1350 ny        1 33L     -0.688800
     16 CAP        -2.1980   -2.9810    0.0200 c         1 33L      0.629700
     17 OAQ        -3.0490   -3.1850    0.8960 o         1 33L     -0.598100
     18 CAR        -1.4930   -3.8950   -0.8290 ca        1 33L     -0.239600
     19 CAS        -0.6060   -3.5020   -1.8590 ca        1 33L     -0.037500
     20 CAT         0.0270   -4.4620   -2.6310 ca        1 33L     -0.123500
     21 CAU        -0.2040   -5.8290   -2.4000 ca        1 33L      0.021000
     22 CAV        -1.0800   -6.2270   -1.3870 ca        1 33L     -0.123500
     23 CAW        -1.7250   -5.2770   -0.6040 ca        1 33L     -0.037500
     24 H1         -1.0260    1.9860   -1.3950 ha        1 33L      0.135500
     25 H2          1.3590    2.3720   -1.9780 ha        1 33L      0.178500
     26 H3          3.1720    1.6170   -0.4280 ha        1 33L      0.185000
     27 H4          2.5860    0.4520    1.7050 ha        1 33L      0.178500
     28 H5          0.2030    0.0750    2.3060 ha        1 33L      0.135500
     29 H6         -2.6640    1.3170    0.1120 hc        1 33L      0.099700
     30 H7         -2.1630    1.3220    1.8640 hc        1 33L      0.099700
     31 H8         -1.8610   -1.0850    1.9450 hx        1 33L      0.138700
     32 H9         -4.2360   -2.2470    2.5500 hn        1 33L      0.488300
     33 H10        -6.1000    0.1070    2.5210 hx        1 33L      0.143700
     34 H11        -6.4210   -1.5210    1.7470 hx        1 33L      0.143700
     35 H12        -6.3030   -2.6450    4.0520 hx        1 33L      0.140700
     36 H13        -5.9810   -1.0120    4.8320 hx        1 33L      0.140700
     37 H14        -8.4690   -1.7840    3.3410 hn        1 33L      0.493467
     38 H15        -8.1760   -0.2980    4.0530 hn        1 33L      0.493467
     39 H17        -0.8680   -1.3320   -0.2010 hn        1 33L      0.495800
     40 H18        -0.4050   -2.4430   -2.0810 ha        1 33L      0.150000
     41 H19         0.7180   -4.1560   -3.4390 ha        1 33L      0.194500
     42 H20         0.3090   -6.5870   -3.0230 ha        1 33L      0.199000
     43 H21        -1.2620   -7.3030   -1.2060 ha        1 33L      0.194500
     44 H22        -2.4170   -5.5930    0.1950 ha        1 33L      0.150000
     45 HAK2       -3.9450   -0.7500    3.2450 hn        1 33L      0.488300
     46 HAN3       -8.2690   -1.6750    5.0000 hn        1 33L      0.493467
     47 H23        -2.3160   -1.1400   -1.0100 hn        1 33L      0.495800
@<TRIPOS>BOND
     1    1    2 ar  
     2    1    6 ar  
     3    1   24 1   
     4    2    3 ar  
     5    2   25 1   
     6    3    4 ar  
     7    3   26 1   
     8    4    5 ar  
     9    4   27 1   
    10    5    6 ar  
    11    5   28 1   
    12    6    7 1   
    13    7    8 1   
    14    7   29 1   
    15    7   30 1   
    16    8    9 1   
    17    8   15 1   
    18    8   31 1   
    19    9   10 2   
    20    9   11 1   
    21   11   12 1   
    22   11   32 1   
    23   11   45 1   
    24   12   13 1   
    25   12   33 1   
    26   12   34 1   
    27   13   14 1   
    28   13   35 1   
    29   13   36 1   
    30   14   37 1   
    31   14   38 1   
    32   14   46 1   
    33   15   16 1   
    34   15   39 1   
    35   15   47 1   
    36   16   17 2   
    37   16   18 1   
    38   18   19 ar  
    39   18   23 ar  
    40   19   20 ar  
    41   19   40 1   
    42   20   21 ar  
    43   20   41 1   
    44   21   22 ar  
    45   21   42 1   
    46   22   23 ar  
    47   22   43 1   
    48   23   44 1   
@<TRIPOS>SUBSTRUCTURE
     1 33L         1 TEMP              0 ****  ****    0 ROOT
