@<TRIPOS>MOLECULE
33L
   47    48     1     0     0
SMALL
bcc


@<TRIPOS>ATOM
      1 CD1        -0.0600    1.0920   -0.6370 ca        1 33L     -0.127000
      2 CE1         1.2910    1.2830   -0.9130 ca        1 33L     -0.102500
      3 CZ          2.2240    1.3060    0.1290 ca        1 33L     -0.061000
      4 CE2         1.8000    1.1360    1.4480 ca        1 33L     -0.102500
      5 CD2         0.4470    0.9470    1.7300 ca        1 33L     -0.127000
      6 CG         -0.4900    0.9220    0.6900 ca        1 33L     -0.213300
      7 CB         -1.9400    0.8210    0.9860 c3        1 33L     -0.031100
      8 CA         -2.3720   -0.6700    1.0510 c3        1 33L      0.076500
      9 C          -3.9000   -0.7200    1.1470 c         1 33L      0.541100
     10 O          -4.6880   -0.3620    0.2930 o         1 33L     -0.358100
     11 NAK        -4.4810   -1.2670    2.4460 n4        1 33L     -0.670800
     12 CAL        -5.9460   -1.0130    2.5680 c3        1 33L      0.075800
     13 CAM        -6.5520   -1.6100    3.8580 c3        1 33L      0.079800
     14 NAN        -8.0130   -1.3560    3.9750 n4        1 33L     -0.834600
     15 N          -1.9020   -1.4280   -0.1530 n4        1 33L     -0.690800
     16 CAP        -2.2300   -2.9270   -0.0780 c         1 33L      0.629700
     17 OAQ        -3.0970   -3.1610    0.7730 o         1 33L     -0.598100
     18 CAR        -1.5280   -3.8090   -0.9620 ca        1 33L     -0.238600
     19 CAS        -0.6220   -3.3800   -1.9630 ca        1 33L     -0.037500
     20 CAT         0.0060   -4.3100   -2.7730 ca        1 33L     -0.123500
     21 CAU        -0.2460   -5.6840   -2.6100 ca        1 33L      0.021000
     22 CAV        -1.1400   -6.1170   -1.6270 ca        1 33L     -0.123500
     23 CAW        -1.7810   -5.1960   -0.8070 ca        1 33L     -0.037500
     24 H1         -0.7930    1.1420   -1.4570 ha        1 33L      0.133500
     25 H2          1.6250    1.4450   -1.9530 ha        1 33L      0.178000
     26 H3          3.2930    1.4780   -0.0920 ha        1 33L      0.185000
     27 H4          2.5340    1.1720    2.2720 ha        1 33L      0.178000
     28 H5          0.1210    0.8500    2.7770 ha        1 33L      0.133500
     29 H6         -2.5440    1.3570    0.2040 hc        1 33L      0.100200
     30 H7         -2.1690    1.2810    1.9850 hc        1 33L      0.100200
     31 H8         -1.8810   -1.1560    1.9490 hx        1 33L      0.139700
     32 H9         -3.9820   -0.8460    3.2410 hn        1 33L      0.487800
     33 H10        -6.4470   -1.4580    1.6530 hx        1 33L      0.143700
     34 H11        -6.1030    0.1080    2.5380 hx        1 33L      0.143700
     35 H12        -6.0550   -1.1620    4.7720 hx        1 33L      0.140700
     36 H13        -6.3990   -2.7320    3.8810 hx        1 33L      0.140700
     37 H14        -8.3600   -1.7800    4.8550 hn        1 33L      0.493467
     38 H15        -8.5300   -1.7760    3.1900 hn        1 33L      0.493467
     39 H17        -2.3190   -1.0300   -1.0060 hn        1 33L      0.495300
     40 H18        -0.4050   -2.3140   -2.1310 ha        1 33L      0.150000
     41 H19         0.7110   -3.9770   -3.5570 ha        1 33L      0.194500
     42 H20         0.2640   -6.4180   -3.2630 ha        1 33L      0.199000
     43 H21        -1.3390   -7.1980   -1.5000 ha        1 33L      0.194500
     44 H22        -2.4870   -5.5400   -0.0320 ha        1 33L      0.150000
     45 HAK2       -4.2950   -2.2880    2.4450 hn        1 33L      0.487800
     46 HAN3       -8.2170   -0.3460    4.0020 hn        1 33L      0.493467
     47 H23        -0.8730   -1.2870   -0.2170 hn        1 33L      0.495300
@<TRIPOS>BOND
     1    1    2 ar  
     2    1    6 ar  
     3    1   24 1   
     4    2    3 ar  
     5    2   25 1   
     6    3    4 ar  
     7    3   26 1   
     8    4    5 ar  
     9    4   27 1   
    10    5    6 ar  
    11    5   28 1   
    12    6    7 1   
    13    7    8 1   
    14    7   29 1   
    15    7   30 1   
    16    8    9 1   
    17    8   15 1   
    18    8   31 1   
    19    9   10 2   
    20    9   11 1   
    21   11   12 1   
    22   11   32 1   
    23   11   45 1   
    24   12   13 1   
    25   12   33 1   
    26   12   34 1   
    27   13   14 1   
    28   13   35 1   
    29   13   36 1   
    30   14   37 1   
    31   14   38 1   
    32   14   46 1   
    33   15   16 1   
    34   15   39 1   
    35   15   47 1   
    36   16   17 2   
    37   16   18 1   
    38   18   19 ar  
    39   18   23 ar  
    40   19   20 ar  
    41   19   40 1   
    42   20   21 ar  
    43   20   41 1   
    44   21   22 ar  
    45   21   42 1   
    46   22   23 ar  
    47   22   43 1   
    48   23   44 1   
@<TRIPOS>SUBSTRUCTURE
     1 33L         1 TEMP              0 ****  ****    0 ROOT
