@<TRIPOS>MOLECULE
33M
   40    43     1     0     0
SMALL
bcc


@<TRIPOS>ATOM
      1 CAL        -0.1210    0.0040   -0.0860 ca        1 33M     -0.119000
      2 C5          1.2900    0.0950   -0.0590 ca        1 33M     -0.348600
      3 C6          2.0590    0.5070    1.1080 ca        1 33M      0.717200
      4 NAC         1.4000    0.9070    2.2680 nh        1 33M     -0.937500
      5 N1          3.4050    0.5790    1.0800 nb        1 33M     -0.816000
      6 C2          4.0370    0.2500   -0.1280 ca        1 33M      0.900900
      7 NAB         5.4390    0.2410   -0.1070 nh        1 33M     -0.924500
      8 N3          3.4180   -0.1200   -1.2870 nb        1 33M     -0.752000
      9 C4          2.0430   -0.2110   -1.2460 ca        1 33M      0.691300
     10 NAM         1.3840   -0.6070   -2.4130 nb        1 33M     -0.635000
     11 CAK         0.0750   -0.6960   -2.3930 ca        1 33M      0.441200
     12 CAR        -0.7670   -0.4080   -1.2460 ca        1 33M     -0.007700
     13 NAX        -2.1550   -0.6520   -1.3300 nh        1 33M     -0.525400
     14 CAA        -2.9530   -0.3670   -0.1620 c3        1 33M      0.180100
     15 CAS        -2.7870   -0.3200   -2.5760 ca        1 33M      0.099600
     16 CAV        -2.8970    1.0340   -3.0550 ca        1 33M     -0.043000
     17 CAJ        -2.3570    2.1470   -2.3510 ca        1 33M     -0.123000
     18 CAE        -2.4900    3.4230   -2.8400 ca        1 33M     -0.120000
     19 CAD        -3.1680    3.6580   -4.0590 ca        1 33M     -0.125000
     20 CAH        -3.6950    2.6050   -4.7640 ca        1 33M     -0.117000
     21 CAT        -3.5710    1.2730   -4.2800 ca        1 33M     -0.035000
     22 CAI        -4.1150    0.1840   -5.0140 ca        1 33M     -0.111000
     23 CAF        -3.9920   -1.0980   -4.5440 ca        1 33M     -0.131000
     24 CAG        -3.3290   -1.3570   -3.3240 ca        1 33M     -0.107000
     25 H1         -0.7050    0.2650    0.8080 ha        1 33M      0.132000
     26 H2          1.9590    1.0550    3.0790 hn        1 33M      0.417300
     27 H3          0.5230    0.4730    2.4340 hn        1 33M      0.417300
     28 H4          5.8900    0.2450   -0.9930 hn        1 33M      0.425800
     29 H5          5.8750    0.7740    0.6090 hn        1 33M      0.425800
     30 H6         -0.3970   -1.0160   -3.3440 h4        1 33M      0.037100
     31 H7         -2.5730   -0.9920    0.6900 h1        1 33M      0.042367
     32 H8         -4.0170   -0.6540   -0.3750 h1        1 33M      0.042367
     33 H9         -2.9260    0.7160    0.1390 h1        1 33M      0.042367
     34 H10        -1.8150    1.9790   -1.4080 ha        1 33M      0.137000
     35 H11        -2.0670    4.2780   -2.2910 ha        1 33M      0.135000
     36 H12        -3.2620    4.6890   -4.4320 ha        1 33M      0.135000
     37 H13        -4.2210    2.7700   -5.7170 ha        1 33M      0.134000
     38 H14        -4.6310    0.3920   -5.9630 ha        1 33M      0.136000
     39 H15        -4.4070   -1.9470   -5.1090 ha        1 33M      0.138000
     40 H16        -3.2530   -2.4000   -2.9770 ha        1 33M      0.148000
@<TRIPOS>BOND
     1    1    2 ar  
     2    1   12 ar  
     3    1   25 1   
     4    2    3 ar  
     5    2    9 ar  
     6    3    4 1   
     7    3    5 ar  
     8    4   26 1   
     9    4   27 1   
    10    5    6 ar  
    11    6    7 1   
    12    6    8 ar  
    13    7   28 1   
    14    7   29 1   
    15    8    9 ar  
    16    9   10 ar  
    17   10   11 ar  
    18   11   12 ar  
    19   11   30 1   
    20   12   13 1   
    21   13   14 1   
    22   13   15 1   
    23   14   31 1   
    24   14   32 1   
    25   14   33 1   
    26   15   16 ar  
    27   15   24 ar  
    28   16   17 ar  
    29   16   21 ar  
    30   17   18 ar  
    31   17   34 1   
    32   18   19 ar  
    33   18   35 1   
    34   19   20 ar  
    35   19   36 1   
    36   20   21 ar  
    37   20   37 1   
    38   21   22 ar  
    39   22   23 ar  
    40   22   38 1   
    41   23   24 ar  
    42   23   39 1   
    43   24   40 1   
@<TRIPOS>SUBSTRUCTURE
     1 33M         1 TEMP              0 ****  ****    0 ROOT
