@<TRIPOS>MOLECULE
33M
   40    43     1     0     0
SMALL
bcc


@<TRIPOS>ATOM
      1 CAL        -0.1210   -0.0280   -0.0920 ca        1 33M     -0.119000
      2 C5          1.2880    0.0790   -0.0610 ca        1 33M     -0.349600
      3 C6          2.0540    0.4320    1.1270 ca        1 33M      0.720200
      4 NAC         1.3930    0.7100    2.3210 nv        1 33M     -0.938500
      5 N1          3.3970    0.5470    1.0960 nb        1 33M     -0.819000
      6 C2          4.0240    0.3560   -0.1440 ca        1 33M      0.901900
      7 NAB         5.3970    0.6300   -0.1910 nv        1 33M     -0.924500
      8 N3          3.4150   -0.0300   -1.3040 nb        1 33M     -0.753000
      9 C4          2.0430   -0.1640   -1.2610 ca        1 33M      0.692300
     10 NAM         1.3910   -0.5470   -2.4360 nb        1 33M     -0.636000
     11 CAK         0.0840   -0.6600   -2.4170 ca        1 33M      0.441200
     12 CAR        -0.7620   -0.4120   -1.2630 ca        1 33M     -0.008700
     13 NAX        -2.1480   -0.6650   -1.3570 nh        1 33M     -0.524400
     14 CAA        -2.9520   -0.4070   -0.1860 c3        1 33M      0.180100
     15 CAS        -2.7800   -0.3140   -2.5980 ca        1 33M      0.099600
     16 CAV        -2.8970    1.0480   -3.0520 ca        1 33M     -0.043000
     17 CAJ        -2.3650    2.1510   -2.3280 ca        1 33M     -0.122000
     18 CAE        -2.5030    3.4350   -2.7930 ca        1 33M     -0.119000
     19 CAD        -3.1800    3.6880   -4.0100 ca        1 33M     -0.124000
     20 CAH        -3.7000    2.6450   -4.7340 ca        1 33M     -0.117000
     21 CAT        -3.5690    1.3050   -4.2750 ca        1 33M     -0.035000
     22 CAI        -4.1050    0.2260   -5.0300 ca        1 33M     -0.111000
     23 CAF        -3.9760   -1.0630   -4.5830 ca        1 33M     -0.132000
     24 CAG        -3.3140   -1.3400   -3.3660 ca        1 33M     -0.107000
     25 H1         -0.7080    0.2020    0.8100 ha        1 33M      0.132000
     26 H2          0.5340    0.2320    2.4590 hn        1 33M      0.418300
     27 H3          1.9530    0.8270    3.1350 hn        1 33M      0.418300
     28 H4          5.8930    0.2640   -0.9710 hn        1 33M      0.426300
     29 H5          5.8800    0.6290    0.6770 hn        1 33M      0.426300
     30 H6         -0.3830   -0.9660   -3.3750 h4        1 33M      0.037100
     31 H7         -2.5740   -1.0480    0.6540 h1        1 33M      0.042033
     32 H8         -2.9270    0.6700    0.1380 h1        1 33M      0.042033
     33 H9         -4.0140   -0.6900   -0.4080 h1        1 33M      0.042033
     34 H10        -1.8230    1.9690   -1.3860 ha        1 33M      0.137000
     35 H11        -2.0850    4.2820   -2.2280 ha        1 33M      0.136000
     36 H12        -3.2790    4.7250   -4.3640 ha        1 33M      0.135000
     37 H13        -4.2240    2.8240   -5.6850 ha        1 33M      0.134000
     38 H14        -4.6210    0.4490   -5.9760 ha        1 33M      0.136000
     39 H15        -4.3850   -1.9040   -5.1630 ha        1 33M      0.137000
     40 H16        -3.2320   -2.3890   -3.0380 ha        1 33M      0.147000
@<TRIPOS>BOND
     1    1    2 ar  
     2    1   12 ar  
     3    1   25 1   
     4    2    3 ar  
     5    2    9 ar  
     6    3    4 1   
     7    3    5 ar  
     8    4   26 1   
     9    4   27 1   
    10    5    6 ar  
    11    6    7 1   
    12    6    8 ar  
    13    7   28 1   
    14    7   29 1   
    15    8    9 ar  
    16    9   10 ar  
    17   10   11 ar  
    18   11   12 ar  
    19   11   30 1   
    20   12   13 1   
    21   13   14 1   
    22   13   15 1   
    23   14   31 1   
    24   14   32 1   
    25   14   33 1   
    26   15   16 ar  
    27   15   24 ar  
    28   16   17 ar  
    29   16   21 ar  
    30   17   18 ar  
    31   17   34 1   
    32   18   19 ar  
    33   18   35 1   
    34   19   20 ar  
    35   19   36 1   
    36   20   21 ar  
    37   20   37 1   
    38   21   22 ar  
    39   22   23 ar  
    40   22   38 1   
    41   23   24 ar  
    42   23   39 1   
    43   24   40 1   
@<TRIPOS>SUBSTRUCTURE
     1 33M         1 TEMP              0 ****  ****    0 ROOT
