@<TRIPOS>MOLECULE
33N
   45    47     1     0     0
SMALL
bcc


@<TRIPOS>ATOM
      1 C4         -0.2460    0.0200   -0.1480 c3        1 33N     -0.104400
      2 C5          0.9480   -1.2850    2.8190 ca        1 33N     -0.127500
      3 C6         -0.7180   -2.5730    1.6330 ca        1 33N     -0.127500
      4 C7         -2.6450    0.7360    2.6010 ca        1 33N     -0.127500
      5 C8         -3.0360   -0.4520    0.5340 ca        1 33N     -0.127500
      6 C10         1.4420   -2.4560    3.3930 ca        1 33N     -0.120250
      7 C13        -4.4110   -0.3040    0.7110 ca        1 33N     -0.120250
      8 C15         0.8600   -3.6860    3.0860 ca        1 33N     -0.113000
      9 C17         3.2590    0.4990   -1.7280 c         1 33N      0.577700
     10 C20         5.3190    0.2070   -3.0260 ca        1 33N     -0.002000
     11 C21         3.2270   -0.3120   -4.1370 ca        1 33N      0.447200
     12 C22         5.9720   -0.1430   -4.2040 ca        1 33N     -0.238300
     13 C24         5.2010   -0.5690   -5.3040 ca        1 33N      0.476200
     14 O19         3.7610    1.0520   -0.7580 o         1 33N     -0.419100
     15 C18         3.9100    0.1190   -2.9750 ca        1 33N     -0.337900
     16 N23         3.8530   -0.6500   -5.2730 nb        1 33N     -0.640000
     17 N14         1.7830    0.1620   -1.6130 n4        1 33N     -0.673800
     18 C9          1.2440    0.3250   -0.2290 c3        1 33N      0.099800
     19 C1         -0.6570   -0.0680    1.3260 c3        1 33N      0.045900
     20 C3         -2.1420    0.0680    1.4760 ca        1 33N     -0.106800
     21 C16        -4.9060    0.3610    1.8320 ca        1 33N     -0.113000
     22 C12        -4.0200    0.8800    2.7770 ca        1 33N     -0.120250
     23 C2         -0.1360   -1.3360    1.9330 ca        1 33N     -0.106800
     24 C11        -0.2220   -3.7420    2.2070 ca        1 33N     -0.120250
     25 H4         -0.8390    0.8300   -0.6500 hc        1 33N      0.069200
     26 H4A        -0.4840   -0.9540   -0.6510 hc        1 33N      0.069200
     27 H5          1.3990   -0.3170    3.0860 ha        1 33N      0.131000
     28 H6         -1.5900   -2.6160    0.9620 ha        1 33N      0.131000
     29 H7         -1.9540    1.1430    3.3540 ha        1 33N      0.131000
     30 H8         -2.6630   -0.9870   -0.3520 ha        1 33N      0.131000
     31 H10         2.2850   -2.4060    4.0980 ha        1 33N      0.144750
     32 H13        -5.1060   -0.7180   -0.0350 ha        1 33N      0.144750
     33 H15         1.2460   -4.6090    3.5460 ha        1 33N      0.147500
     34 H22         7.0690   -0.0880   -4.2800 ha        1 33N      0.184000
     35 H24         5.6770   -0.8590   -6.2630 h4        1 33N      0.063100
     36 HN14        1.2600    0.7710   -2.2520 hn        1 33N      0.456800
     37 H9          1.4480    1.3860    0.0980 hx        1 33N      0.119700
     38 H9A         1.8190   -0.3700    0.4530 hx        1 33N      0.119700
     39 H1         -0.1820    0.8070    1.8650 hc        1 33N      0.065700
     40 H16        -5.9920    0.4750    1.9710 ha        1 33N      0.147500
     41 H12        -4.4070    1.4020    3.6650 ha        1 33N      0.144750
     42 H11        -0.6940   -4.7090    1.9750 ha        1 33N      0.144750
     43 H20         5.8840    0.5490   -2.1410 ha        1 33N      0.179000
     44 H142        1.6450   -0.8100   -1.9150 hn        1 33N      0.456800
     45 H21         2.1250   -0.3880   -4.1900 h4        1 33N      0.018100
@<TRIPOS>BOND
     1    1   18 1   
     2    1   19 1   
     3    1   25 1   
     4    1   26 1   
     5    2    6 ar  
     6    2   23 ar  
     7    2   27 1   
     8    3   23 ar  
     9    3   24 ar  
    10    3   28 1   
    11    4   20 ar  
    12    4   22 ar  
    13    4   29 1   
    14    5    7 ar  
    15    5   20 ar  
    16    5   30 1   
    17    6    8 ar  
    18    6   31 1   
    19    7   21 ar  
    20    7   32 1   
    21    8   24 ar  
    22    8   33 1   
    23    9   14 2   
    24    9   15 1   
    25    9   17 1   
    26   10   12 ar  
    27   10   15 ar  
    28   10   43 1   
    29   11   15 ar  
    30   11   16 ar  
    31   11   45 1   
    32   12   13 ar  
    33   12   34 1   
    34   13   16 ar  
    35   13   35 1   
    36   17   18 1   
    37   17   36 1   
    38   17   44 1   
    39   18   37 1   
    40   18   38 1   
    41   19   20 1   
    42   19   23 1   
    43   19   39 1   
    44   21   22 ar  
    45   21   40 1   
    46   22   41 1   
    47   24   42 1   
@<TRIPOS>SUBSTRUCTURE
     1 33N         1 TEMP              0 ****  ****    0 ROOT
