@<TRIPOS>MOLECULE
33N
   45    47     1     0     0
SMALL
bcc


@<TRIPOS>ATOM
      1 C4         -0.2440    0.0210   -0.1450 c3        1 33N     -0.104400
      2 C5          0.9480   -1.2930    2.8190 ca        1 33N     -0.127500
      3 C6         -0.7220   -2.5740    1.6320 ca        1 33N     -0.127500
      4 C7         -2.6390    0.7390    2.6060 ca        1 33N     -0.127500
      5 C8         -3.0340   -0.4440    0.5380 ca        1 33N     -0.127500
      6 C10         1.4400   -2.4660    3.3900 ca        1 33N     -0.120250
      7 C13        -4.4090   -0.2930    0.7160 ca        1 33N     -0.120250
      8 C15         0.8540   -3.6940    3.0820 ca        1 33N     -0.113000
      9 C17         3.2610    0.4920   -1.7280 c         1 33N      0.577700
     10 C20         5.3180    0.2030   -3.0310 ca        1 33N     -0.002000
     11 C21         3.2230   -0.3100   -4.1400 ca        1 33N      0.447200
     12 C22         5.9680   -0.1420   -4.2130 ca        1 33N     -0.238300
     13 C24         5.1940   -0.5630   -5.3120 ca        1 33N      0.476200
     14 O19         3.7660    1.0380   -0.7560 o         1 33N     -0.419100
     15 C18         3.9090    0.1160   -2.9780 ca        1 33N     -0.337900
     16 N23         3.8460   -0.6440   -5.2790 nb        1 33N     -0.640000
     17 N14         1.7840    0.1580   -1.6120 ny        1 33N     -0.673800
     18 C9          1.2470    0.3210   -0.2270 c3        1 33N      0.099800
     19 C1         -0.6540   -0.0680    1.3280 c3        1 33N      0.045900
     20 C3         -2.1380    0.0720    1.4810 ca        1 33N     -0.106800
     21 C16        -4.9010    0.3730    1.8380 ca        1 33N     -0.113000
     22 C12        -4.0130    0.8870    2.7830 ca        1 33N     -0.120250
     23 C2         -0.1360   -1.3390    1.9330 ca        1 33N     -0.106800
     24 C11        -0.2290   -3.7450    2.2040 ca        1 33N     -0.120250
     25 H4         -0.8350    0.8320   -0.6460 hc        1 33N      0.069200
     26 H4A        -0.4850   -0.9530   -0.6500 hc        1 33N      0.069200
     27 H5          1.4020   -0.3270    3.0870 ha        1 33N      0.131000
     28 H6         -1.5950   -2.6130    0.9610 ha        1 33N      0.131000
     29 H7         -1.9460    1.1440    3.3600 ha        1 33N      0.131000
     30 H8         -2.6640   -0.9790   -0.3490 ha        1 33N      0.131000
     31 H10         2.2840   -2.4200    4.0960 ha        1 33N      0.144750
     32 H13        -5.1060   -0.7030   -0.0300 ha        1 33N      0.144750
     33 H15         1.2370   -4.6180    3.5410 ha        1 33N      0.147500
     34 H22         7.0650   -0.0880   -4.2920 ha        1 33N      0.184000
     35 H24         5.6670   -0.8500   -6.2740 h4        1 33N      0.063100
     36 HN14        1.2620    0.7700   -2.2490 hn        1 33N      0.456800
     37 H9          1.4550    1.3810    0.1010 hx        1 33N      0.119700
     38 H9A         1.8210   -0.3760    0.4540 hx        1 33N      0.119700
     39 H1         -0.1760    0.8040    1.8690 hc        1 33N      0.065700
     40 H16        -5.9870    0.4900    1.9790 ha        1 33N      0.147500
     41 H12        -4.3970    1.4100    3.6730 ha        1 33N      0.144750
     42 H11        -0.7040   -4.7100    1.9710 ha        1 33N      0.144750
     43 H20         5.8850    0.5420   -2.1470 ha        1 33N      0.179000
     44 H142        1.6440   -0.8120   -1.9150 hn        1 33N      0.456800
     45 H21         2.1210   -0.3850   -4.1910 h4        1 33N      0.018100
@<TRIPOS>BOND
     1    1   18 1   
     2    1   19 1   
     3    1   25 1   
     4    1   26 1   
     5    2    6 ar  
     6    2   23 ar  
     7    2   27 1   
     8    3   23 ar  
     9    3   24 ar  
    10    3   28 1   
    11    4   20 ar  
    12    4   22 ar  
    13    4   29 1   
    14    5    7 ar  
    15    5   20 ar  
    16    5   30 1   
    17    6    8 ar  
    18    6   31 1   
    19    7   21 ar  
    20    7   32 1   
    21    8   24 ar  
    22    8   33 1   
    23    9   14 2   
    24    9   15 1   
    25    9   17 1   
    26   10   12 ar  
    27   10   15 ar  
    28   10   43 1   
    29   11   15 ar  
    30   11   16 ar  
    31   11   45 1   
    32   12   13 ar  
    33   12   34 1   
    34   13   16 ar  
    35   13   35 1   
    36   17   18 1   
    37   17   36 1   
    38   17   44 1   
    39   18   37 1   
    40   18   38 1   
    41   19   20 1   
    42   19   23 1   
    43   19   39 1   
    44   21   22 ar  
    45   21   40 1   
    46   22   41 1   
    47   24   42 1   
@<TRIPOS>SUBSTRUCTURE
     1 33N         1 TEMP              0 ****  ****    0 ROOT
