@<TRIPOS>MOLECULE
33N
   44    46     1     0     0
SMALL
bcc


@<TRIPOS>ATOM
      1 C4          0.5820   -0.6850    0.2410 c3        1 33N     -0.095400
      2 C5          2.1710    2.3100    0.9320 ca        1 33N     -0.124000
      3 C6          2.4900    1.3690   -1.2690 ca        1 33N     -0.124000
      4 C7          4.1590   -1.2810    1.1090 ca        1 33N     -0.124000
      5 C8          2.9700   -1.9050   -0.8960 ca        1 33N     -0.124000
      6 C10         2.3950    3.5860    0.4160 ca        1 33N     -0.127250
      7 C13         3.9910   -2.7970   -1.2220 ca        1 33N     -0.127250
      8 C15         2.6670    3.7560   -0.9410 ca        1 33N     -0.128500
      9 C17        -2.8380    0.4980    0.4680 c         1 33N      0.676700
     10 C20        -5.3240    0.6290    0.4510 ca        1 33N     -0.041000
     11 C21        -4.2930   -1.1760   -0.7800 ca        1 33N      0.418200
     12 C22        -6.5620    0.1330    0.0430 ca        1 33N     -0.253300
     13 C24        -6.5910   -1.0170   -0.7680 ca        1 33N      0.412200
     14 O19        -2.6590    1.7250    0.6140 o         1 33N     -0.601100
     15 C18        -4.1600   -0.0400    0.0430 ca        1 33N     -0.257900
     16 N23        -5.4830   -1.6630   -1.1810 nb        1 33N     -0.669000
     17 N14        -1.8380   -0.4130    0.7350 n         1 33N     -0.568900
     18 C9         -0.5030   -0.0190    1.0910 c3        1 33N      0.086000
     19 C1          1.9610   -0.1760    0.6570 c3        1 33N      0.028900
     20 C3          3.0440   -1.1390    0.2730 ca        1 33N     -0.076300
     21 C16         5.0980   -2.9310   -0.3860 ca        1 33N     -0.128500
     22 C12         5.1800   -2.1710    0.7810 ca        1 33N     -0.127250
     23 C2          2.2170    1.1910    0.0920 ca        1 33N     -0.076300
     24 C11         2.7140    2.6450   -1.7820 ca        1 33N     -0.127250
     25 H4          0.5440   -1.7980    0.3770 hc        1 33N      0.051200
     26 H4A         0.4130   -0.4660   -0.8450 hc        1 33N      0.051200
     27 H5          1.9520    2.1860    2.0030 ha        1 33N      0.132000
     28 H6          2.5330    0.4910   -1.9330 ha        1 33N      0.132000
     29 H7          4.2320   -0.6820    2.0290 ha        1 33N      0.132000
     30 H8          2.1010   -1.8070   -1.5650 ha        1 33N      0.132000
     31 H10         2.3530    4.4600    1.0830 ha        1 33N      0.131500
     32 H13         3.9220   -3.3940   -2.1440 ha        1 33N      0.131500
     33 H15         2.8430    4.7630   -1.3460 ha        1 33N      0.131500
     34 H21        -3.4110   -1.7230   -1.1580 h4        1 33N      0.022100
     35 H22        -7.4950    0.6270    0.3420 ha        1 33N      0.150000
     36 H24        -7.5500   -1.4440   -1.1120 h4        1 33N      0.026100
     37 HN14       -2.0080   -1.3790    0.5950 hn        1 33N      0.309500
     38 H9         -0.3310   -0.2910    2.1740 h1        1 33N      0.064200
     39 H9A        -0.4100    1.1030    0.9960 h1        1 33N      0.064200
     40 H1          1.9690   -0.0960    1.7870 hc        1 33N      0.059700
     41 H16         5.9040   -3.6340   -0.6440 ha        1 33N      0.131500
     42 H12         6.0520   -2.2720    1.4440 ha        1 33N      0.131500
     43 H11         2.9290    2.7740   -2.8530 ha        1 33N      0.131500
     44 H20        -5.2440    1.5340    1.0730 ha        1 33N      0.163000
@<TRIPOS>BOND
     1    1   18 1   
     2    1   19 1   
     3    1   25 1   
     4    1   26 1   
     5    2    6 ar  
     6    2   23 ar  
     7    2   27 1   
     8    3   23 ar  
     9    3   24 ar  
    10    3   28 1   
    11    4   20 ar  
    12    4   22 ar  
    13    4   29 1   
    14    5    7 ar  
    15    5   20 ar  
    16    5   30 1   
    17    6    8 ar  
    18    6   31 1   
    19    7   21 ar  
    20    7   32 1   
    21    8   24 ar  
    22    8   33 1   
    23    9   14 2   
    24    9   15 1   
    25    9   17 1   
    26   10   12 ar  
    27   10   15 ar  
    28   10   44 1   
    29   11   15 ar  
    30   11   16 ar  
    31   11   34 1   
    32   12   13 ar  
    33   12   35 1   
    34   13   16 ar  
    35   13   36 1   
    36   17   18 1   
    37   17   37 1   
    38   18   38 1   
    39   18   39 1   
    40   19   20 1   
    41   19   23 1   
    42   19   40 1   
    43   21   22 ar  
    44   21   41 1   
    45   22   42 1   
    46   24   43 1   
@<TRIPOS>SUBSTRUCTURE
     1 33N         1 TEMP              0 ****  ****    0 ROOT
