@<TRIPOS>MOLECULE
33N
   45    47     1     0     0
SMALL
bcc


@<TRIPOS>ATOM
      1 C4         -0.2430    0.0190   -0.1460 c3        1 33N     -0.104400
      2 C5          0.9460   -1.2910    2.8220 ca        1 33N     -0.127500
      3 C6         -0.7250   -2.5720    1.6360 ca        1 33N     -0.127500
      4 C7         -2.6380    0.7450    2.6030 ca        1 33N     -0.127500
      5 C8         -3.0340   -0.4420    0.5360 ca        1 33N     -0.127500
      6 C10         1.4360   -2.4630    3.3950 ca        1 33N     -0.120250
      7 C13        -4.4080   -0.2890    0.7130 ca        1 33N     -0.120250
      8 C15         0.8490   -3.6910    3.0890 ca        1 33N     -0.113000
      9 C17         3.2640    0.4840   -1.7260 c         1 33N      0.577700
     10 C20         5.3190    0.2010   -3.0340 ca        1 33N     -0.002000
     11 C21         3.2240   -0.3160   -4.1400 ca        1 33N      0.447200
     12 C22         5.9690   -0.1420   -4.2160 ca        1 33N     -0.238300
     13 C24         5.1940   -0.5630   -5.3150 ca        1 33N      0.476200
     14 O19         3.7700    1.0260   -0.7530 o         1 33N     -0.419100
     15 C18         3.9110    0.1110   -2.9780 ca        1 33N     -0.337900
     16 N23         3.8460   -0.6460   -5.2800 nb        1 33N     -0.640000
     17 N14         1.7870    0.1520   -1.6110 n4        1 33N     -0.673800
     18 C9          1.2490    0.3170   -0.2270 c3        1 33N      0.099800
     19 C1         -0.6540   -0.0670    1.3280 c3        1 33N      0.045900
     20 C3         -2.1380    0.0750    1.4790 ca        1 33N     -0.106800
     21 C16        -4.9010    0.3800    1.8340 ca        1 33N     -0.113000
     22 C12        -4.0130    0.8950    2.7780 ca        1 33N     -0.120250
     23 C2         -0.1380   -1.3380    1.9350 ca        1 33N     -0.106800
     24 C11        -0.2330   -3.7430    2.2100 ca        1 33N     -0.120250
     25 H4         -0.4840   -0.9550   -0.6490 hc        1 33N      0.069200
     26 H4A        -0.8320    0.8300   -0.6480 hc        1 33N      0.069200
     27 H5          1.4010   -0.3250    3.0880 ha        1 33N      0.131000
     28 H6         -1.5970   -2.6120    0.9650 ha        1 33N      0.131000
     29 H7         -1.9460    1.1500    3.3560 ha        1 33N      0.131000
     30 H8         -2.6640   -0.9790   -0.3490 ha        1 33N      0.131000
     31 H10         2.2800   -2.4170    4.1010 ha        1 33N      0.144750
     32 H13        -5.1060   -0.7000   -0.0320 ha        1 33N      0.144750
     33 H15         1.2310   -4.6150    3.5490 ha        1 33N      0.147500
     34 H22         7.0660   -0.0850   -4.2960 ha        1 33N      0.184000
     35 H24         5.6670   -0.8480   -6.2780 h4        1 33N      0.063100
     36 HN14        1.2660    0.7630   -2.2500 hn        1 33N      0.456800
     37 H9          1.4580    1.3770    0.1000 hx        1 33N      0.119700
     38 H9A         1.8210   -0.3800    0.4550 hx        1 33N      0.119700
     39 H1         -0.1750    0.8050    1.8670 hc        1 33N      0.065700
     40 H16        -5.9860    0.4980    1.9740 ha        1 33N      0.147500
     41 H12        -4.3970    1.4200    3.6670 ha        1 33N      0.144750
     42 H11        -0.7090   -4.7080    1.9780 ha        1 33N      0.144750
     43 H20         5.8870    0.5390   -2.1490 ha        1 33N      0.179000
     44 H142        1.6450   -0.8190   -1.9130 hn        1 33N      0.456800
     45 H21         2.1220   -0.3930   -4.1900 h4        1 33N      0.018100
@<TRIPOS>BOND
     1    1   18 1   
     2    1   19 1   
     3    1   25 1   
     4    1   26 1   
     5    2    6 ar  
     6    2   23 ar  
     7    2   27 1   
     8    3   23 ar  
     9    3   24 ar  
    10    3   28 1   
    11    4   20 ar  
    12    4   22 ar  
    13    4   29 1   
    14    5    7 ar  
    15    5   20 ar  
    16    5   30 1   
    17    6    8 ar  
    18    6   31 1   
    19    7   21 ar  
    20    7   32 1   
    21    8   24 ar  
    22    8   33 1   
    23    9   14 2   
    24    9   15 1   
    25    9   17 1   
    26   10   12 ar  
    27   10   15 ar  
    28   10   43 1   
    29   11   15 ar  
    30   11   16 ar  
    31   11   45 1   
    32   12   13 ar  
    33   12   34 1   
    34   13   16 ar  
    35   13   35 1   
    36   17   18 1   
    37   17   36 1   
    38   17   44 1   
    39   18   37 1   
    40   18   38 1   
    41   19   20 1   
    42   19   23 1   
    43   19   39 1   
    44   21   22 ar  
    45   21   40 1   
    46   22   41 1   
    47   24   42 1   
@<TRIPOS>SUBSTRUCTURE
     1 33N         1 TEMP              0 ****  ****    0 ROOT
