@<TRIPOS>MOLECULE
33N
   44    36     1     0     0
SMALL
bcc


@<TRIPOS>ATOM
      1 C4          0.9060   -0.7240   -0.0680 c3        1 33N     -0.095400
      2 C5          0.7410   -3.2160    1.5740 c1        1 33N     -0.068700
      3 C6          1.6250   -1.8390    3.3320 c1        1 33N     -0.063000
      4 C7         -1.7580    0.2480    2.2450 c1        1 33N     -0.068700
      5 C8         -1.8330   -1.5480    0.6540 c1        1 33N     -0.063000
      6 C10         1.1740   -4.3510    2.2460 c1        1 33N     -0.068700
      7 C13        -3.2230   -1.4930    0.6580 c1        1 33N     -0.068700
      8 C15         1.8320   -4.2290    3.4600 c1        1 33N     -0.068700
      9 C17         1.5030    2.3640   -2.1010 c1        1 33N      0.583500
     10 C20         0.7140    4.2910   -3.5030 c1        1 33N      0.016500
     11 C21        -0.3920    2.1940   -3.7670 c1        1 33N      0.336300
     12 C22        -0.0750    4.8220   -4.4850 c1        1 33N     -0.068700
     13 C24        -1.0280    4.0320   -5.1100 c1        1 33N     -0.068700
     14 O19         2.3800    3.0340   -1.6030 o         1 33N     -0.595500
     15 C18         0.5630    2.9830   -3.1390 c1        1 33N     -0.172000
     16 N23        -1.1780    2.7250   -4.7460 n1        1 33N     -0.468800
     17 N14         1.3550    0.9910   -1.7330 n3        1 33N     -0.408400
     18 C9          1.6670    0.5670   -0.3860 c3        1 33N      0.029300
     19 C1          0.4450   -0.7010    1.3930 c3        1 33N     -0.039500
     20 C3         -1.1020   -0.6790    1.4460 c1        1 33N     -0.042100
     21 C16        -3.8770   -0.5680    1.4550 c1        1 33N     -0.068700
     22 C12        -3.1470    0.3030    2.2490 c1        1 33N     -0.068700
     23 C2          0.9670   -1.9600    2.1180 c1        1 33N     -0.042100
     24 C11         2.0580   -2.9740    4.0030 c1        1 33N     -0.068700
     25 H4          1.4930   -1.4930   -0.2120 hc        1 33N      0.051200
     26 H4A         0.1290   -0.7960   -0.6520 hc        1 33N      0.051200
     27 H5          0.2760   -3.3020    0.7160 ha        1 33N      0.078800
     28 H6          1.7840   -0.9520    3.7150 ha        1 33N      0.076000
     29 H7         -1.2420    0.8630    2.8060 ha        1 33N      0.078800
     30 H8         -1.3690   -2.2040    0.0880 ha        1 33N      0.076000
     31 H10         1.0150   -5.2370    1.8630 ha        1 33N      0.078800
     32 H13        -3.7420   -2.1110    0.0940 ha        1 33N      0.078800
     33 H15         2.1370   -5.0280    3.9330 ha        1 33N      0.078800
     34 H20         1.3860    4.8490   -3.0600 ha        1 33N      0.105500
     35 H21        -0.5000    1.2590   -3.5070 ha        1 33N      0.101500
     36 H22         0.0320    5.7580   -4.7460 ha        1 33N      0.078800
     37 H24        -1.5900    4.4100   -5.8110 ha        1 33N      0.078800
     38 HN14        0.9900    0.3980   -2.3240 hn        1 33N      0.272700
     39 H9          1.4010    1.2680    0.2470 h1        1 33N      0.064200
     40 H9A         2.6340    0.4040   -0.3100 h1        1 33N      0.064200
     41 H1          0.7990    0.1000    1.8350 hc        1 33N      0.059700
     42 H16        -4.8590   -0.5290    1.4570 ha        1 33N      0.078800
     43 H12        -3.6110    0.9590    2.8140 ha        1 33N      0.078800
     44 H11         2.5220   -2.8880    4.8600 ha        1 33N      0.078800
@<TRIPOS>BOND
     1    1   18 1   
     2    1   19 1   
     3    1   25 1   
     4    1   26 1   
     5    2    6 3   
     6    2   27 1   
     7    3   23 3   
     8    3   28 1   
     9    4   22 3   
    10    4   29 1   
    11    5   20 3   
    12    5   30 1   
    13    6   31 1   
    14    7   21 3   
    15    7   32 1   
    16    8   24 3   
    17    8   33 1   
    18    9   14 2   
    19    9   17 2   
    20   10   15 3   
    21   10   34 1   
    22   11   16 3   
    23   11   35 1   
    24   12   13 3   
    25   12   36 1   
    26   13   37 1   
    27   17   18 1   
    28   17   38 1   
    29   18   39 1   
    30   18   40 1   
    31   19   20 1   
    32   19   23 1   
    33   19   41 1   
    34   21   42 1   
    35   22   43 1   
    36   24   44 1   
@<TRIPOS>SUBSTRUCTURE
     1 33N         1 TEMP              0 ****  ****    0 ROOT
