@<TRIPOS>MOLECULE
33O
   94    93     1     0     0
SMALL
bcc


@<TRIPOS>ATOM
      1 O19        -1.3380    3.1030   -1.0080 oh        1 33O     -0.599800
      2 C39        -1.6680    2.7200    0.3100 c3        1 33O      0.131400
      3 C40        -1.7850    1.2060    0.4440 c3        1 33O      0.087400
      4 O20        -0.4750    0.6860    0.2290 os        1 33O     -0.438600
      5 C41        -0.4420   -0.7390    0.2710 c3        1 33O      0.128400
      6 C42         1.0280   -1.1410    0.2210 c3        1 33O      0.127400
      7 O21         1.3700   -1.5870    1.5320 os        1 33O     -0.428600
      8 C43         2.7660   -1.8480    1.6660 c3        1 33O      0.127400
      9 C44         2.9570   -2.4860    3.0380 c3        1 33O      0.127400
     10 O22         3.2240   -3.8680    2.8090 os        1 33O     -0.429600
     11 C45         3.2710   -4.6170    4.0210 c3        1 33O      0.127400
     12 C46         3.7470   -6.0170    3.6480 c3        1 33O      0.127400
     13 O23         5.0920   -6.1240    4.1100 os        1 33O     -0.429600
     14 C47         5.7150   -7.3340    3.6840 c3        1 33O      0.127400
     15 C48         7.0670   -7.3960    4.3880 c3        1 33O      0.127400
     16 O24         6.9550   -8.4010    5.3930 os        1 33O     -0.429600
     17 C49         8.1010   -8.4470    6.2410 c3        1 33O      0.127400
     18 C50         7.9280   -9.6680    7.1380 c3        1 33O      0.127400
     19 O25         8.8690  -10.6390    6.6840 os        1 33O     -0.429600
     20 C51         8.7100  -11.8940    7.3430 c3        1 33O      0.127400
     21 C52         9.8820  -12.7650    6.9050 c3        1 33O      0.127400
     22 O26        10.7670  -12.8460    8.0210 os        1 33O     -0.429600
     23 C53        11.9920  -13.4960    7.6920 c3        1 33O      0.127400
     24 C54        12.7590  -13.6610    9.0000 c3        1 33O      0.127400
     25 O27        12.7120  -15.0490    9.3250 os        1 33O     -0.429600
     26 C55        13.2540  -15.3190   10.6160 c3        1 33O      0.127400
     27 C56        13.3120  -16.8370   10.7530 c3        1 33O      0.127400
     28 O28        14.6880  -17.2000   10.6560 os        1 33O     -0.429600
     29 C57        14.8710  -18.6130   10.6100 c3        1 33O      0.127400
     30 C58        16.3750  -18.8570   10.6850 c3        1 33O      0.127400
     31 O29        16.6380  -19.3630   11.9930 os        1 33O     -0.429600
     32 C59        18.0350  -19.4740   12.2570 c3        1 33O      0.127400
     33 C60        18.1670  -20.1790   13.6030 c3        1 33O      0.127400
     34 O30        18.6170  -21.5030   13.3240 os        1 33O     -0.428600
     35 C61        18.6230  -22.3280   14.4870 c3        1 33O      0.127400
     36 C62        19.2820  -23.6420   14.0820 c3        1 33O      0.128400
     37 O31        20.5790  -23.6460   14.6770 os        1 33O     -0.438600
     38 C63        21.3750  -24.7440   14.2360 c3        1 33O      0.087400
     39 C64        22.6930  -24.6450   14.9970 c3        1 33O      0.131400
     40 O32        22.5130  -24.8600   16.3810 oh        1 33O     -0.599800
     41 H1         -0.5150    2.6510   -1.2340 ho        1 33O      0.412000
     42 H2         -0.8990    3.1100    1.0290 h1        1 33O      0.053700
     43 H3         -2.6620    3.1980    0.5140 h1        1 33O      0.053700
     44 H4         -2.1420    0.9260    1.4690 h1        1 33O      0.039200
     45 H5         -2.4870    0.7910   -0.3270 h1        1 33O      0.039200
     46 H6         -0.9900   -1.1450   -0.6200 h1        1 33O      0.045200
     47 H7         -0.9250   -1.1110    1.2140 h1        1 33O      0.045200
     48 H8          1.6710   -0.2690   -0.0720 h1        1 33O      0.043200
     49 H9          1.1790   -1.9830   -0.5060 h1        1 33O      0.043200
     50 H10         3.1130   -2.5400    0.8540 h1        1 33O      0.044200
     51 H11         3.3290   -0.8790    1.6030 h1        1 33O      0.044200
     52 H12         3.8330   -2.0240    3.5660 h1        1 33O      0.043700
     53 H13         2.0340   -2.3680    3.6650 h1        1 33O      0.043700
     54 H14         3.9770   -4.1370    4.7490 h1        1 33O      0.043700
     55 H15         2.2410   -4.6600    4.4660 h1        1 33O      0.043700
     56 H16         3.7050   -6.1690    2.5370 h1        1 33O      0.043200
     57 H17         3.1190   -6.7940    4.1590 h1        1 33O      0.043200
     58 H18         5.8540   -7.3040    2.5710 h1        1 33O      0.043700
     59 H19         5.0800   -8.2170    3.9620 h1        1 33O      0.043700
     60 H20         7.8720   -7.6880    3.6630 h1        1 33O      0.043700
     61 H21         7.3190   -6.4060    4.8540 h1        1 33O      0.043700
     62 H22         8.1400   -7.5100    6.8570 h1        1 33O      0.043700
     63 H23         9.0360   -8.5330    5.6260 h1        1 33O      0.043700
     64 H24         6.8850  -10.0740    7.0620 h1        1 33O      0.043200
     65 H25         8.1550   -9.4050    8.2040 h1        1 33O      0.043200
     66 H26         8.7130  -11.7520    8.4560 h1        1 33O      0.043700
     67 H27         7.7380  -12.3560    7.0240 h1        1 33O      0.043700
     68 H28        10.4080  -12.3120    6.0230 h1        1 33O      0.043700
     69 H29         9.5260  -13.7970    6.6430 h1        1 33O      0.043700
     70 H30        12.5710  -12.8530    6.9770 h1        1 33O      0.043200
     71 H31        11.7880  -14.4940    7.2210 h1        1 33O      0.043200
     72 H32        12.2880  -13.0540    9.8170 h1        1 33O      0.043700
     73 H33        13.8290  -13.3500    8.8680 h1        1 33O      0.043700
     74 H34        14.2780  -14.8710   10.7100 h1        1 33O      0.043700
     75 H35        12.5780  -14.8810   11.3980 h1        1 33O      0.043700
     76 H36        12.9170  -17.1550   11.7540 h1        1 33O      0.043700
     77 H37        12.7210  -17.3330    9.9380 h1        1 33O      0.043700
     78 H38        14.4590  -19.0070    9.6430 h1        1 33O      0.043200
     79 H39        14.3440  -19.1020   11.4720 h1        1 33O      0.043200
     80 H40        16.6850  -19.6220    9.9260 h1        1 33O      0.043700
     81 H41        16.9420  -17.9040   10.5150 h1        1 33O      0.043700
     82 H42        18.5380  -20.0650   11.4460 h1        1 33O      0.043700
     83 H43        18.4830  -18.4470   12.3090 h1        1 33O      0.043700
     84 H44        18.9270  -19.6600   14.2440 h1        1 33O      0.044200
     85 H45        17.1790  -20.2080   14.1350 h1        1 33O      0.044200
     86 H46        19.1980  -21.8310   15.3130 h1        1 33O      0.043200
     87 H47        17.5660  -22.5070   14.8180 h1        1 33O      0.043200
     88 H48        18.6960  -24.5130   14.4770 h1        1 33O      0.045200
     89 H49        19.3670  -23.7180   12.9660 h1        1 33O      0.045200
     90 H50        21.5500  -24.6690   13.1320 h1        1 33O      0.039200
     91 H51        20.8510  -25.7080   14.4710 h1        1 33O      0.039200
     92 H52        23.3880  -25.4590   14.6620 h1        1 33O      0.053700
     93 H53        23.1630  -23.6410   14.8200 h1        1 33O      0.053700
     94 H54        21.8660  -24.2100   16.6840 ho        1 33O      0.412000
@<TRIPOS>BOND
     1    1    2 1   
     2    1   41 1   
     3    2    3 1   
     4    2   42 1   
     5    2   43 1   
     6    3    4 1   
     7    3   44 1   
     8    3   45 1   
     9    4    5 1   
    10    5    6 1   
    11    5   46 1   
    12    5   47 1   
    13    6    7 1   
    14    6   48 1   
    15    6   49 1   
    16    7    8 1   
    17    8    9 1   
    18    8   50 1   
    19    8   51 1   
    20    9   10 1   
    21    9   52 1   
    22    9   53 1   
    23   10   11 1   
    24   11   12 1   
    25   11   54 1   
    26   11   55 1   
    27   12   13 1   
    28   12   56 1   
    29   12   57 1   
    30   13   14 1   
    31   14   15 1   
    32   14   58 1   
    33   14   59 1   
    34   15   16 1   
    35   15   60 1   
    36   15   61 1   
    37   16   17 1   
    38   17   18 1   
    39   17   62 1   
    40   17   63 1   
    41   18   19 1   
    42   18   64 1   
    43   18   65 1   
    44   19   20 1   
    45   20   21 1   
    46   20   66 1   
    47   20   67 1   
    48   21   22 1   
    49   21   68 1   
    50   21   69 1   
    51   22   23 1   
    52   23   24 1   
    53   23   70 1   
    54   23   71 1   
    55   24   25 1   
    56   24   72 1   
    57   24   73 1   
    58   25   26 1   
    59   26   27 1   
    60   26   74 1   
    61   26   75 1   
    62   27   28 1   
    63   27   76 1   
    64   27   77 1   
    65   28   29 1   
    66   29   30 1   
    67   29   78 1   
    68   29   79 1   
    69   30   31 1   
    70   30   80 1   
    71   30   81 1   
    72   31   32 1   
    73   32   33 1   
    74   32   82 1   
    75   32   83 1   
    76   33   34 1   
    77   33   84 1   
    78   33   85 1   
    79   34   35 1   
    80   35   36 1   
    81   35   86 1   
    82   35   87 1   
    83   36   37 1   
    84   36   88 1   
    85   36   89 1   
    86   37   38 1   
    87   38   39 1   
    88   38   90 1   
    89   38   91 1   
    90   39   40 1   
    91   39   92 1   
    92   39   93 1   
    93   40   94 1   
@<TRIPOS>SUBSTRUCTURE
     1 33O         1 TEMP              0 ****  ****    0 ROOT
