@<TRIPOS>MOLECULE
33P
   41    41     1     0     0
SMALL
bcc


@<TRIPOS>ATOM
      1 N1         -1.1750   -0.1670    0.5470 nb        1 33P     -0.679000
      2 C2          0.0320    0.3970    0.2500 ca        1 33P      0.305600
      3 C2A         0.3330    0.7960   -1.1550 c3        1 33P     -0.107400
      4 C3          1.0200    0.5870    1.2380 ca        1 33P     -0.002200
      5 O3          2.2270    1.1010    0.8030 oh        1 33P     -0.544100
      6 C4          0.7670    0.2180    2.5830 ca        1 33P     -0.162300
      7 C4A         1.8620    0.3510    3.6020 c3        1 33P      0.207100
      8 C5         -0.4840   -0.3230    2.8830 ca        1 33P     -0.140600
      9 C6         -1.4110   -0.5140    1.8110 ca        1 33P      0.373200
     10 C5A        -0.9260   -0.7620    4.2610 c3        1 33P      0.242700
     11 O4A        -2.2770   -0.6460    4.4510 os        1 33P     -0.562200
     12 PA         -3.1870   -2.1280    4.4980 p5        1 33P      1.315900
     13 O1A        -3.5030   -2.2770    3.0290 o         1 33P     -0.922500
     14 O2A        -2.1770   -3.1050    5.0390 o         1 33P     -0.922500
     15 O3A        -4.3390   -1.7890    5.3980 o         1 33P     -0.922500
     16 PB          6.2440    3.9120    5.6830 p5        1 33P      1.428800
     17 O1B         7.0720    3.8880    6.9100 o         1 33P     -0.845000
     18 O2B         6.8200    2.6590    4.8040 oh        1 33P     -0.780400
     19 O3B         6.0350    5.0830    4.8080 o         1 33P     -0.845000
     20 N7          2.2760    1.7270    3.8410 n3        1 33P     -0.843200
     21 C8          3.3170    1.8380    4.8440 c3        1 33P      0.143800
     22 C9          3.7660    3.2970    5.1170 c3        1 33P      0.200100
     23 O4B         4.7880    3.2480    6.0750 os        1 33P     -0.585200
     24 C10         2.6020    4.1220    5.6530 c3        1 33P     -0.105100
     25 H2A1        0.9540    0.0060   -1.6450 hc        1 33P      0.020700
     26 H2A2        0.9200    1.7480   -1.1550 hc        1 33P      0.020700
     27 H2A3       -0.5950    0.9420   -1.7590 hc        1 33P      0.020700
     28 HO3         2.6940    1.4650    1.5670 ho        1 33P      0.435000
     29 H4A1        2.7690   -0.2020    3.2130 h1        1 33P      0.037200
     30 H4A2        1.5510   -0.1690    4.5560 h1        1 33P      0.037200
     31 H6         -2.3950   -1.0290    2.0780 h4        1 33P      0.153100
     32 H5A1       -0.5910   -1.8350    4.4090 h1        1 33P      0.020200
     33 H5A2       -0.3970   -0.1040    5.0170 h1        1 33P      0.020200
     34 HN7         1.4810    2.2850    4.0930 hn        1 33P      0.362800
     35 H81         4.2150    1.2680    4.4730 h1        1 33P      0.031200
     36 H82         3.0160    1.3820    5.8320 h1        1 33P      0.031200
     37 H9          4.1610    3.7680    4.1710 h1        1 33P      0.057700
     38 H101        2.9720    5.0990    6.0430 hc        1 33P      0.028367
     39 H102        2.0940    3.5800    6.4850 hc        1 33P      0.028367
     40 H103        1.8650    4.3210    4.8400 hc        1 33P      0.028367
     41 H72         7.1780    1.9770    5.3580 ho        1 33P      0.419000
@<TRIPOS>BOND
     1    1    2 ar  
     2    1    9 ar  
     3    2    3 1   
     4    2    4 ar  
     5    3   25 1   
     6    3   26 1   
     7    3   27 1   
     8    4    5 1   
     9    4    6 ar  
    10    5   28 1   
    11    6    7 1   
    12    6    8 ar  
    13    7   20 1   
    14    7   29 1   
    15    7   30 1   
    16    8    9 ar  
    17    8   10 1   
    18    9   31 1   
    19   10   11 1   
    20   10   32 1   
    21   10   33 1   
    22   11   12 1   
    23   12   13 1   
    24   12   14 1   
    25   12   15 1   
    26   16   17 1   
    27   16   18 1   
    28   16   19 1   
    29   16   23 1   
    30   18   41 1   
    31   20   21 1   
    32   20   34 1   
    33   21   22 1   
    34   21   35 1   
    35   21   36 1   
    36   22   23 1   
    37   22   24 1   
    38   22   37 1   
    39   24   38 1   
    40   24   39 1   
    41   24   40 1   
@<TRIPOS>SUBSTRUCTURE
     1 33P         1 TEMP              0 ****  ****    0 ROOT
