@<TRIPOS>MOLECULE
33P
   40    36     1     0     0
SMALL
bcc


@<TRIPOS>ATOM
      1 N1         -1.9020    0.8340   -3.4910 n1        1 33P     -0.162000
      2 C2         -0.4920    1.0280   -3.5210 c1        1 33P     -0.137000
      3 C2A         0.2490    1.0090   -4.8560 c3        1 33P     -0.126000
      4 C3          0.2020    1.1600   -2.3530 c1        1 33P      0.043000
      5 O3          1.6290    1.4550   -2.3790 o         1 33P     -0.308000
      6 C4         -0.4760    1.1050   -1.1290 c2        1 33P     -0.141000
      7 C4A         0.3110    1.1590    0.1770 c3        1 33P     -0.038000
      8 C5         -1.8540    0.9160   -1.1010 c1        1 33P     -0.081000
      9 C6         -2.5610    0.7810   -2.2940 c1        1 33P     -0.110000
     10 C5A        -2.5900    1.0320    0.1820 c3        1 33P      0.090000
     11 O4A        -4.0000    0.8590   -0.0540 os        1 33P     -0.732000
     12 PA         -4.9730    1.3400    1.0040 p5        1 33P      1.551500
     13 O1A        -4.7250    2.7490    1.2870 o         1 33P     -0.930167
     14 O2A        -4.7850    0.5500    2.2370 o         1 33P     -0.930167
     15 O3A        -6.4580    1.1580    0.4790 o         1 33P     -0.930167
     16 PB          1.8690   -3.7770    2.8420 p3        1 33P      2.511000
     17 O1B         2.6370   -4.0540    4.1850 o         1 33P     -1.255500
     18 O2B         2.7020   -4.1080    1.7460 os        1 33P     -1.265000
     19 O3B         0.6270   -4.6120    2.7950 o         1 33P     -1.255500
     20 N7          1.0480   -0.1030    0.3590 n3        1 33P     -0.334000
     21 C8          1.5260   -0.1830    1.6970 c3        1 33P     -0.106000
     22 C9          2.2520   -1.4620    1.8940 c3        1 33P      0.121000
     23 O4B         1.4950   -2.3080    2.7600 os        1 33P     -0.729000
     24 C10         3.5880   -1.1880    2.5130 c3        1 33P     -0.243000
     25 H2A1        0.6560    1.8430   -5.0000 hc        1 33P      0.055333
     26 H2A2       -0.4030    0.8240   -5.5950 hc        1 33P      0.055333
     27 H2A3        0.9410    0.3010   -4.8420 hc        1 33P      0.055333
     28 HO3         2.1220    0.6480   -2.5760 ho        1 33P      0.265000
     29 H4A1        0.9420    1.9030    0.1490 h1        1 33P      0.076500
     30 H4A2       -0.2380    1.2710    0.8440 h1        1 33P      0.076500
     31 H6         -3.4610    0.6570   -2.2760 ha        1 33P      0.275000
     32 H5A1       -2.2430    0.2740    0.8640 h1        1 33P      0.057500
     33 H5A2       -2.4280    1.9230    0.5720 h1        1 33P      0.057500
     34 HN7         1.8010   -0.1290   -0.2560 hn        1 33P      0.149000
     35 H81         2.1470    0.5850    1.8770 h1        1 33P      0.063500
     36 H82         0.7780   -0.1420    2.3100 h1        1 33P      0.063500
     37 H9          2.3700   -1.8830    1.0760 h1        1 33P      0.089000
     38 H101        3.5610   -1.4090    3.4330 hc        1 33P      0.051333
     39 H102        4.3300   -1.7760    2.0270 hc        1 33P      0.051333
     40 H103        3.8060   -0.2300    2.4120 hc        1 33P      0.051333
@<TRIPOS>BOND
     1    1    9 1   
     2    2    3 1   
     3    2    4 1   
     4    3   25 1   
     5    3   26 1   
     6    3   27 1   
     7    4    6 1   
     8    5   28 1   
     9    6    7 1   
    10    6    8 1   
    11    7   20 1   
    12    7   29 1   
    13    7   30 1   
    14    8   10 1   
    15    9   31 1   
    16   10   11 1   
    17   10   32 1   
    18   10   33 1   
    19   11   12 1   
    20   12   13 1   
    21   12   14 1   
    22   12   15 1   
    23   16   17 1   
    24   16   19 1   
    25   16   23 1   
    26   20   21 1   
    27   20   34 1   
    28   21   22 1   
    29   21   35 1   
    30   21   36 1   
    31   22   23 1   
    32   22   24 1   
    33   22   37 1   
    34   24   38 1   
    35   24   39 1   
    36   24   40 1   
@<TRIPOS>SUBSTRUCTURE
     1 33P         1 TEMP              0 ****  ****    0 ROOT
