@<TRIPOS>MOLECULE
33P
   41    41     1     0     0
SMALL
bcc


@<TRIPOS>ATOM
      1 N1         -1.0750   -0.4020    0.5710 nb        1 33P     -0.679000
      2 C2          0.1060    0.2080    0.2650 ca        1 33P      0.305600
      3 C2A         0.4040    0.5720   -1.1510 c3        1 33P     -0.107400
      4 C3          1.0730    0.4820    1.2550 ca        1 33P     -0.002200
      5 O3          2.2580    1.0390    0.8130 oh        1 33P     -0.544100
      6 C4          0.8230    0.1500    2.6100 ca        1 33P     -0.162300
      7 C4A         1.8980    0.3730    3.6340 c3        1 33P      0.207100
      8 C5         -0.4040   -0.4400    2.9170 ca        1 33P     -0.140600
      9 C6         -1.3080   -0.7150    1.8440 ca        1 33P      0.373200
     10 C5A        -0.8400   -0.8510    4.3060 c3        1 33P      0.242700
     11 O4A        -2.1970   -0.7940    4.4780 os        1 33P     -0.562200
     12 PA         -3.0350   -2.3160    4.5700 p5        1 33P      1.315900
     13 O1A        -3.3260   -2.5330    3.1040 o         1 33P     -0.922500
     14 O2A        -1.9850   -3.2230    5.1560 o         1 33P     -0.922500
     15 O3A        -4.2130   -2.0010    5.4460 o         1 33P     -0.922500
     16 PB          6.0780    4.2160    5.6260 p5        1 33P      1.428800
     17 O1B         6.8920    4.2760    6.8600 o         1 33P     -0.845000
     18 O2B         6.7240    2.9610    4.7990 oh        1 33P     -0.780400
     19 O3B         5.8240    5.3430    4.7060 o         1 33P     -0.845000
     20 N7          2.2420    1.7750    3.8270 n7        1 33P     -0.843200
     21 C8          3.2650    1.9730    4.8340 c3        1 33P      0.143800
     22 C9          3.6390    3.4610    5.0580 c3        1 33P      0.200100
     23 O4B         4.6520    3.4970    6.0270 os        1 33P     -0.585200
     24 C10         2.4320    4.2470    5.5520 c3        1 33P     -0.105100
     25 H2A1        0.9450    1.5500   -1.1800 hc        1 33P      0.020700
     26 H2A2       -0.5230    0.6520   -1.7680 hc        1 33P      0.020700
     27 H2A3        1.0680   -0.2050   -1.6060 hc        1 33P      0.020700
     28 HO3         2.6990    1.4520    1.5680 ho        1 33P      0.435000
     29 H4A1        2.8350   -0.1490    3.2750 h1        1 33P      0.037200
     30 H4A2        1.6010   -0.1270    4.6030 h1        1 33P      0.037200
     31 H6         -2.2690   -1.2680    2.1200 h4        1 33P      0.153100
     32 H5A1       -0.4560   -1.9000    4.4960 h1        1 33P      0.020200
     33 H5A2       -0.3530   -0.1410    5.0430 h1        1 33P      0.020200
     34 HN7         7.1080    2.3170    5.3820 ho        1 33P      0.419000
     35 H81         2.9750    1.5390    5.8350 h1        1 33P      0.031200
     36 H82         4.1930    1.4330    4.4940 h1        1 33P      0.031200
     37 H9          4.0230    3.9150    4.0990 h1        1 33P      0.057700
     38 H101        2.7490    5.2550    5.9090 hc        1 33P      0.028367
     39 H102        1.6950    4.3800    4.7250 hc        1 33P      0.028367
     40 H103        1.9400    3.7120    6.3980 hc        1 33P      0.028367
     41 H72         1.4180    2.3030    4.0500 hn        1 33P      0.362800
@<TRIPOS>BOND
     1    1    2 ar  
     2    1    9 ar  
     3    2    3 1   
     4    2    4 ar  
     5    3   25 1   
     6    3   26 1   
     7    3   27 1   
     8    4    5 1   
     9    4    6 ar  
    10    5   28 1   
    11    6    7 1   
    12    6    8 ar  
    13    7   20 1   
    14    7   29 1   
    15    7   30 1   
    16    8    9 ar  
    17    8   10 1   
    18    9   31 1   
    19   10   11 1   
    20   10   32 1   
    21   10   33 1   
    22   11   12 1   
    23   12   13 1   
    24   12   14 1   
    25   12   15 1   
    26   16   17 1   
    27   16   18 1   
    28   16   19 1   
    29   16   23 1   
    30   18   34 1   
    31   20   21 1   
    32   20   41 1   
    33   21   22 1   
    34   21   35 1   
    35   21   36 1   
    36   22   23 1   
    37   22   24 1   
    38   22   37 1   
    39   24   38 1   
    40   24   39 1   
    41   24   40 1   
@<TRIPOS>SUBSTRUCTURE
     1 33P         1 TEMP              0 ****  ****    0 ROOT
