@<TRIPOS>MOLECULE
33P
   41    41     1     0     0
SMALL
bcc


@<TRIPOS>ATOM
      1 N1         -1.1760   -0.2090    0.5680 nb        1 33P     -0.679000
      2 C2          0.0110    0.3880    0.2620 ca        1 33P      0.305600
      3 C2A         0.2860    0.8080   -1.1430 c3        1 33P     -0.107400
      4 C3          1.0070    0.5950    1.2400 ca        1 33P     -0.002200
      5 O3          2.1940    1.1440    0.7950 oh        1 33P     -0.544100
      6 C4          0.7790    0.2080    2.5840 ca        1 33P     -0.162300
      7 C4A         1.8820    0.3600    3.5920 c3        1 33P      0.207100
      8 C5         -0.4540   -0.3680    2.8940 ca        1 33P     -0.140600
      9 C6         -1.3880   -0.5740    1.8310 ca        1 33P      0.373200
     10 C5A        -0.8680   -0.8300    4.2730 c3        1 33P      0.242700
     11 O4A        -2.2190   -0.7510    4.4800 os        1 33P     -0.562200
     12 PA         -3.0900   -2.2570    4.5230 p5        1 33P      1.315900
     13 O1A        -3.4190   -2.4010    3.0560 o         1 33P     -0.922500
     14 O2A        -2.0490   -3.2120    5.0430 o         1 33P     -0.922500
     15 O3A        -4.2400   -1.9560    5.4390 o         1 33P     -0.922500
     16 PB          6.1970    4.0130    5.6530 p5        1 33P      1.428800
     17 O1B         7.0380    4.0000    6.8700 o         1 33P     -0.845000
     18 O2B         6.7940    2.7820    4.7570 oh        1 33P     -0.780400
     19 O3B         5.9500    5.1860    4.7900 o         1 33P     -0.845000
     20 N7          2.2630    1.7440    3.8380 n3        1 33P     -0.843200
     21 C8          3.3130    1.8740    4.8290 c3        1 33P      0.143800
     22 C9          3.7280    3.3410    5.1090 c3        1 33P      0.200100
     23 O4B         4.7620    3.3110    6.0550 os        1 33P     -0.585200
     24 C10         2.5510    4.1320    5.6640 c3        1 33P     -0.105100
     25 H2A1       -0.6530    0.9340   -1.7350 hc        1 33P      0.020700
     26 H2A2        0.8480    1.7740   -1.1420 hc        1 33P      0.020700
     27 H2A3        0.9220    0.0380   -1.6480 hc        1 33P      0.020700
     28 HO3         2.6610    1.5130    1.5580 ho        1 33P      0.435000
     29 H4A1        2.7980   -0.1660    3.1880 h1        1 33P      0.037200
     30 H4A2        1.5950   -0.1760    4.5450 h1        1 33P      0.037200
     31 H6         -2.3560   -1.1170    2.1050 h4        1 33P      0.153100
     32 H5A1       -0.5040   -1.8960    4.4070 h1        1 33P      0.020200
     33 H5A2       -0.3480   -0.1660    5.0290 h1        1 33P      0.020200
     34 HN7         7.1750    2.1050    5.3020 ho        1 33P      0.419000
     35 H81         3.0350    1.4020    5.8170 h1        1 33P      0.031200
     36 H82         4.2210    1.3290    4.4440 h1        1 33P      0.031200
     37 H9          4.1020    3.8290    4.1620 h1        1 33P      0.057700
     38 H101        2.9010    5.1160    6.0580 hc        1 33P      0.028367
     39 H102        2.0650    3.5720    6.4970 hc        1 33P      0.028367
     40 H103        1.8000    4.3190    4.8610 hc        1 33P      0.028367
     41 H72         1.4580    2.2800    4.1030 hn        1 33P      0.362800
@<TRIPOS>BOND
     1    1    2 ar  
     2    1    9 ar  
     3    2    3 1   
     4    2    4 ar  
     5    3   25 1   
     6    3   26 1   
     7    3   27 1   
     8    4    5 1   
     9    4    6 ar  
    10    5   28 1   
    11    6    7 1   
    12    6    8 ar  
    13    7   20 1   
    14    7   29 1   
    15    7   30 1   
    16    8    9 ar  
    17    8   10 1   
    18    9   31 1   
    19   10   11 1   
    20   10   32 1   
    21   10   33 1   
    22   11   12 1   
    23   12   13 1   
    24   12   14 1   
    25   12   15 1   
    26   16   17 1   
    27   16   18 1   
    28   16   19 1   
    29   16   23 1   
    30   18   34 1   
    31   20   21 1   
    32   20   41 1   
    33   21   22 1   
    34   21   35 1   
    35   21   36 1   
    36   22   23 1   
    37   22   24 1   
    38   22   37 1   
    39   24   38 1   
    40   24   39 1   
    41   24   40 1   
@<TRIPOS>SUBSTRUCTURE
     1 33P         1 TEMP              0 ****  ****    0 ROOT
