@<TRIPOS>MOLECULE
33P
   40    40     1     0     0
SMALL
bcc


@<TRIPOS>ATOM
      1 N1          2.6060   -0.9520    2.8840 nb        1 33P     -0.688000
      2 C2          2.9830   -0.9470    1.5760 ca        1 33P      0.285600
      3 C2A         4.2090   -1.6870    1.1550 c3        1 33P     -0.102400
      4 C3          2.2570   -0.2350    0.5920 ca        1 33P      0.021800
      5 O3          2.8010   -0.2640   -0.6710 oh        1 33P     -0.553100
      6 C4          1.0790    0.4730    0.9440 ca        1 33P     -0.149300
      7 C4A         0.3510    1.2820   -0.0980 c3        1 33P      0.205100
      8 C5          0.6940    0.4490    2.2890 ca        1 33P     -0.150600
      9 C6          1.5100   -0.2700    3.2150 ca        1 33P      0.359200
     10 C5A        -0.5030    1.1630    2.8810 c3        1 33P      0.244700
     11 O4A        -1.0350    0.5060    3.9630 os        1 33P     -0.570200
     12 PA         -0.8220    1.2290    5.5230 p5        1 33P      1.317900
     13 O1A        -2.0480    0.7870    6.2740 o         1 33P     -0.930167
     14 O2A         0.4760    0.5880    5.9530 o         1 33P     -0.930167
     15 O3A        -0.7380    2.7000    5.2090 o         1 33P     -0.930167
     16 PB         -0.6520    1.5630   -6.2910 p5        1 33P      1.319900
     17 O1B        -1.4850    0.3920   -6.7520 o         1 33P     -0.939500
     18 O2B        -1.0260    2.8980   -6.8800 o         1 33P     -0.939500
     19 O3B         0.8240    1.2840   -6.1750 o         1 33P     -0.939500
     20 N7          0.1880    0.6090   -1.3790 n3        1 33P     -0.854200
     21 C8         -0.2480    1.4840   -2.4540 c3        1 33P      0.129800
     22 C9         -0.7080    0.7650   -3.7630 c3        1 33P      0.233100
     23 O4B        -1.1540    1.7330   -4.6330 os        1 33P     -0.568200
     24 C10        -1.8170   -0.2370   -3.4260 c3        1 33P     -0.124100
     25 H2A1        5.0320   -0.9590    0.9460 hc        1 33P      0.016033
     26 H2A2        4.5590   -2.4070    1.9340 hc        1 33P      0.016033
     27 H2A3        3.9980   -2.2480    0.2100 hc        1 33P      0.016033
     28 HO3         2.1410    0.0780   -1.3050 ho        1 33P      0.465000
     29 H4A1        0.9630    2.2140   -0.2820 h1        1 33P      0.035200
     30 H4A2       -0.6410    1.6250    0.3200 h1        1 33P      0.035200
     31 H6          1.2020   -0.2240    4.3090 h4        1 33P      0.137100
     32 H5A1       -0.1760    2.2070    3.1740 h1        1 33P      0.021200
     33 H5A2       -1.3010    1.2400    2.0830 h1        1 33P      0.021200
     34 HN7        -0.4340   -0.1700   -1.2790 hn        1 33P      0.355800
     35 H81         0.6210    2.1440   -2.7260 h1        1 33P      0.023200
     36 H82        -1.0930    2.1560   -2.1240 h1        1 33P      0.023200
     37 H9          0.1710    0.2150   -4.2120 h1        1 33P      0.049700
     38 H101       -2.5710    0.2230   -2.7440 hc        1 33P      0.012367
     39 H102       -2.3300   -0.5470   -4.3680 hc        1 33P      0.012367
     40 H103       -1.3960   -1.1460   -2.9340 hc        1 33P      0.012367
@<TRIPOS>BOND
     1    1    2 ar  
     2    1    9 ar  
     3    2    3 1   
     4    2    4 ar  
     5    3   25 1   
     6    3   26 1   
     7    3   27 1   
     8    4    5 1   
     9    4    6 ar  
    10    5   28 1   
    11    6    7 1   
    12    6    8 ar  
    13    7   20 1   
    14    7   29 1   
    15    7   30 1   
    16    8    9 ar  
    17    8   10 1   
    18    9   31 1   
    19   10   11 1   
    20   10   32 1   
    21   10   33 1   
    22   11   12 1   
    23   12   13 1   
    24   12   14 1   
    25   12   15 1   
    26   16   17 1   
    27   16   18 1   
    28   16   19 1   
    29   16   23 1   
    30   20   21 1   
    31   20   34 1   
    32   21   22 1   
    33   21   35 1   
    34   21   36 1   
    35   22   23 1   
    36   22   24 1   
    37   22   37 1   
    38   24   38 1   
    39   24   39 1   
    40   24   40 1   
@<TRIPOS>SUBSTRUCTURE
     1 33P         1 TEMP              0 ****  ****    0 ROOT
