@<TRIPOS>MOLECULE
33R
   40    41     1     0     0
SMALL
bcc


@<TRIPOS>ATOM
      1 C15        -0.1040    0.0080    0.0290 ca        1 33R      0.019000
      2 C17        -0.5540   -0.1240    2.4090 ca        1 33R     -0.126000
      3 C20         1.6810    0.3830    1.6280 ca        1 33R     -0.065000
      4 C22         1.2380    0.2990    0.3040 ca        1 33R     -0.086000
      5 C28         0.7390    2.6790   -7.3140 c2        1 33R     -0.183000
      6 Cl21        3.3140    0.7420    1.9260 cl        1 33R      0.001000
      7 C01         3.1080    3.3140   -6.9650 c3        1 33R     -0.092000
      8 C02         3.4460    2.5090   -8.1370 c1        1 33R     -0.271000
      9 C03         2.5180    1.7860   -8.7960 c2        1 33R     -0.305000
     10 N04         2.8830    1.0390   -9.9980 no        1 33R      0.587000
     11 O05         4.0050    1.0230  -10.4360 o         1 33R     -0.451000
     12 O06         2.0180    0.4070  -10.5860 o         1 33R     -0.451000
     13 C07         1.0560    1.7180   -8.4140 c3        1 33R      0.016000
     14 C08         0.6640    0.3230   -8.0450 c2        1 33R     -0.025000
     15 C09         0.1030   -0.0190   -6.9120 c1        1 33R     -0.171000
     16 N10        -0.5610   -0.3700   -5.8950 n2        1 33R     -0.070000
     17 C12        -0.4440   -0.4280   -3.5480 c2        1 33R     -0.146000
     18 N13         0.2590   -0.4200   -2.3940 n2        1 33R     -0.164000
     19 C14        -0.5890   -0.0690   -1.3460 c2        1 33R     -0.032000
     20 C16        -0.9940   -0.2080    1.0930 ca        1 33R     -0.117000
     21 C18         0.7850    0.1730    2.6850 ca        1 33R     -0.066000
     22 C23        -1.9030    0.2040   -1.7220 c2        1 33R     -0.505000
     23 S24        -2.1170    0.0200   -3.3600 ss        1 33R      0.550000
     24 C25        -2.8650   -1.9270   -6.9550 c1        1 33R      0.427000
     25 O26        -2.1060   -2.8050   -7.2110 o         1 33R     -0.214000
     26 O27        -3.6660   -1.0800   -6.7120 o         1 33R     -0.214000
     27 C29         1.6530    3.3960   -6.6550 c2        1 33R     -0.173000
     28 H171       -1.2600   -0.2950    3.2360 ha        1 33R      0.144000
     29 H221        1.9500    0.4610   -0.5230 ha        1 33R      0.176000
     30 H281       -0.3330    2.7560   -7.0740 ha        1 33R      0.100000
     31 H011        3.6530    2.8900   -6.0750 hc        1 33R      0.090000
     32 H021        3.5060    4.3550   -7.1300 hc        1 33R      0.090000
     33 H082        0.4230    1.9920   -9.3140 hc        1 33R      0.105000
     34 H081        0.8600   -0.4430   -8.8220 ha        1 33R      0.186000
     35 H111        1.0750   -0.8900   -4.8060 hn        1 33R      0.200000
     36 H161       -2.0470   -0.4520    0.8850 ha        1 33R      0.141000
     37 H231       -2.6930    0.5170   -1.0440 h4        1 33R      0.172000
     38 H291        1.3580    4.0910   -5.8540 ha        1 33R      0.094000
     39 Cl19        1.2920    0.2700    4.3040 cl        1 33R     -0.009000
     40 N11         0.0600   -0.8840   -4.7870 nu        1 33R     -0.164000
@<TRIPOS>BOND
     1    1    4 1   
     2    1   19 1   
     3    1   20 1   
     4    2   20 1   
     5    2   21 1   
     6    2   28 1   
     7    3    4 1   
     8    3    6 1   
     9    3   21 1   
    10    4   29 1   
    11    5   13 1   
    12    5   27 1   
    13    5   30 1   
    14    7    8 1   
    15    7   27 1   
    16    7   31 1   
    17    7   32 1   
    18    8    9 1   
    19    9   10 1   
    20    9   13 1   
    21   10   11 1   
    22   10   12 1   
    23   13   14 1   
    24   13   33 1   
    25   14   15 1   
    26   14   34 1   
    27   15   16 1   
    28   16   40 1   
    29   17   18 1   
    30   17   23 1   
    31   17   40 1   
    32   18   19 1   
    33   19   22 1   
    34   20   36 1   
    35   21   39 1   
    36   22   23 1   
    37   22   37 1   
    38   24   25 1   
    39   24   26 1   
    40   27   38 1   
    41   35   40 1   
@<TRIPOS>SUBSTRUCTURE
     1 33R         1 TEMP              0 ****  ****    0 ROOT
