@<TRIPOS>MOLECULE
33R
   42    43     1     0     0
SMALL
bcc


@<TRIPOS>ATOM
      1 C15         0.6890   -0.2110   -1.5440 ca        1 33R     -0.048000
      2 C17         2.2080   -0.4720    0.3250 ca        1 33R     -0.113000
      3 C20         3.0510   -0.5950   -1.9460 ca        1 33R     -0.070000
      4 C22         1.7560   -0.3860   -2.4320 ca        1 33R     -0.087000
      5 C28        -0.5470    2.9230   -6.2180 c2        1 33R     -0.208000
      6 CL21        4.8310   -0.8880    0.0610 cl        1 33R      0.056000
      7 C01         1.4940    4.2350   -5.7440 c3        1 33R     -0.225000
      8 C02         2.3060    3.0960   -6.1110 c1        1 33R      0.031000
      9 C03         1.6650    1.7810   -6.2920 c3        1 33R     -0.155000
     10 N04         2.5750    0.8740   -7.1450 no        1 33R      0.540000
     11 O05         3.3850    0.2040   -6.5770 o         1 33R     -0.338000
     12 O06         2.4020    0.8460   -8.3300 o         1 33R     -0.338000
     13 C07         0.2310    1.8270   -6.8620 c3        1 33R     -0.068000
     14 C08        -0.4100    0.4890   -6.7570 c2        1 33R      0.016000
     15 C09        -1.5810    0.2400   -6.2140 c1        1 33R     -0.065000
     16 N10        -2.7670   -0.0180   -5.8920 n2        1 33R     -0.054000
     17 C12        -2.4050   -0.1050   -3.4180 c2        1 33R     -0.467000
     18 N13        -1.1060   -0.4600   -3.2520 n2        1 33R     -0.058000
     19 C14        -0.6640    0.0230   -2.0370 c2        1 33R      0.006000
     20 C16         0.9220   -0.2610   -0.1610 ca        1 33R     -0.097000
     21 C18         3.2810   -0.6370   -0.5600 ca        1 33R     -0.037000
     22 C23        -1.6460    0.7450   -1.3240 c2        1 33R     -0.456000
     23 S24        -3.0680    0.8110   -2.1380 ss        1 33R      0.737000
     24 C25         2.5340   -2.6730   -7.8280 c1        1 33R      0.444000
     25 O26         1.6340   -2.0030   -7.4150 o         1 33R     -0.221500
     26 O27         3.4170   -3.3490   -8.2340 o         1 33R     -0.221500
     27 C29         0.0250    4.0260   -5.7230 c2        1 33R     -0.140000
     28 H171        2.3840   -0.5130    1.4130 ha        1 33R      0.169000
     29 H221        1.5880   -0.3680   -3.5200 ha        1 33R      0.149000
     30 H281       -1.6410    2.8020   -6.2320 ha        1 33R      0.140000
     31 H011        1.8680    4.6100   -4.7420 hc        1 33R      0.187000
     32 H021        1.7550    5.0650   -6.4760 hc        1 33R      0.187000
     33 H082        0.2960    2.0560   -7.9780 hc        1 33R      0.183000
     34 H081        0.1360   -0.3600   -7.2370 ha        1 33R      0.228000
     35 H111       -3.1610   -1.5370   -4.6580 hn        1 33R      0.270000
     36 H161        0.0890   -0.1460    0.5490 ha        1 33R      0.143000
     37 H231       -1.4670    1.2060   -0.3480 h4        1 33R      0.220000
     38 H291       -0.5780    4.8420   -5.2920 ha        1 33R      0.154000
     39 CL19        4.3140   -0.7910   -3.0510 cl        1 33R      0.052000
     40 H041        1.6650    1.3050   -5.2570 h1        1 33R      0.182000
     41 H112       -4.1280   -0.1660   -4.5050 hn        1 33R      0.270000
     42 N11        -3.1530   -0.4990   -4.6110 n4        1 33R      0.103000
@<TRIPOS>BOND
     1    1    4 1   
     2    1   19 1   
     3    1   20 1   
     4    2   20 1   
     5    2   21 1   
     6    2   28 1   
     7    3    4 1   
     8    3   21 1   
     9    3   39 1   
    10    4   29 1   
    11    5   13 1   
    12    5   27 1   
    13    5   30 1   
    14    6   21 1   
    15    7    8 1   
    16    7   27 1   
    17    7   31 1   
    18    7   32 1   
    19    8    9 1   
    20    9   10 1   
    21    9   13 1   
    22    9   40 1   
    23   10   11 1   
    24   10   12 1   
    25   13   14 1   
    26   13   33 1   
    27   14   15 1   
    28   14   34 1   
    29   15   16 1   
    30   16   42 1   
    31   17   18 1   
    32   17   23 1   
    33   17   42 1   
    34   18   19 1   
    35   19   22 1   
    36   20   36 1   
    37   22   23 1   
    38   22   37 1   
    39   24   25 1   
    40   24   26 1   
    41   27   38 1   
    42   35   42 1   
    43   41   42 1   
@<TRIPOS>SUBSTRUCTURE
     1 33R         1 TEMP              0 ****  ****    0 ROOT
