@<TRIPOS>MOLECULE
33T
   50    52     1     0     0
SMALL
bcc


@<TRIPOS>ATOM
      1 C1          0.5110   -0.3700   -0.0290 c3        1 33T     -0.119100
      2 C2          1.9570    0.0640    0.2030 c3        1 33T      0.247500
      3 C3          2.2450    0.1020    1.7300 c3        1 33T      0.178800
      4 N1          1.6800    1.2830    2.3600 nh        1 33T     -0.637000
      5 C4          2.1210    2.5200    1.7340 c3        1 33T      0.172800
      6 C5          1.8430    2.5110    0.2160 c3        1 33T      0.213800
      7 N2          2.3050    1.3160   -0.4550 n3        1 33T     -0.826500
      8 S1          2.9340    1.3490   -1.9250 sy        1 33T      1.486200
      9 O1          2.3970    0.3490   -2.7530 o         1 33T     -0.621800
     10 O2          3.0150    2.6480   -2.4450 o         1 33T     -0.621800
     11 C6          4.6110    0.8180   -1.6660 ca        1 33T     -0.230500
     12 C7          4.9730   -0.3990   -2.2480 ca        1 33T     -0.033000
     13 C8          6.2900   -0.8620   -2.2190 ca        1 33T     -0.068000
     14 C9          7.2750   -0.0790   -1.6030 ca        1 33T     -0.159600
     15 C10         6.9320    1.1270   -0.9800 ca        1 33T     -0.128000
     16 C11         5.6010    1.5610   -1.0070 ca        1 33T      0.112400
     17 CL1         5.2360    3.0130   -0.2240 cl        1 33T     -0.016400
     18 C12         8.6480   -0.5860   -1.6220 c         1 33T      0.574700
     19 O3          9.0650   -1.7300   -1.5960 o         1 33T     -0.388100
     20 N3          9.7380    0.4730   -1.7440 n4        1 33T     -0.765400
     21 C13         1.7540    1.2890    3.7870 ca        1 33T      0.122600
     22 C14         2.9520    1.0520    4.4900 ca        1 33T     -0.140000
     23 C15         2.9830    1.0390    5.8780 ca        1 33T     -0.133000
     24 C16         1.7990    1.2700    6.6020 ca        1 33T      0.134900
     25 C17         0.5930    1.5110    5.9200 ca        1 33T     -0.118000
     26 C18         0.5730    1.5180    4.5280 ca        1 33T     -0.120300
     27 C19        -0.7560    1.7800    3.8150 c3        1 33T      0.701200
     28 F1         -1.1710    0.7700    2.9840 f         1 33T     -0.231300
     29 F2         -1.8240    1.9710    4.6590 f         1 33T     -0.231300
     30 F3         -0.7580    2.9060    3.0270 f         1 33T     -0.231300
     31 F4          1.8190    1.2600    7.9540 f         1 33T     -0.119900
     32 H1         -0.2020    0.3240    0.4800 hc        1 33T      0.063367
     33 H1A         0.2760   -0.4020   -1.1210 hc        1 33T      0.063367
     34 H1B         0.3710   -1.3930    0.3950 hc        1 33T      0.063367
     35 H2          2.6370   -0.7320   -0.2320 h1        1 33T      0.040700
     36 H3          1.7710   -0.8070    2.1950 h1        1 33T      0.045200
     37 H3A         3.3620    0.0350    1.8840 h1        1 33T      0.045200
     38 H4          3.2190    2.7110    1.9110 h1        1 33T      0.052700
     39 H4A         1.5320    3.3700    2.1840 h1        1 33T      0.052700
     40 H5          2.3480    3.4130   -0.2380 h1        1 33T      0.077200
     41 H5A         0.7280    2.6080    0.0590 h1        1 33T      0.077200
     42 H7          4.2010   -1.0120   -2.7610 ha        1 33T      0.207000
     43 H8          6.5500   -1.8290   -2.6820 ha        1 33T      0.177000
     44 H10         7.6780    1.7340   -0.4440 ha        1 33T      0.143000
     45 HN3         9.7830    1.0280   -0.8850 hn        1 33T      0.470467
     46 HN3A       10.6490    0.0240   -1.9010 hn        1 33T      0.470467
     47 H14         3.8870    0.8720    3.9350 ha        1 33T      0.138000
     48 H15         3.9230    0.8510    6.4190 ha        1 33T      0.159000
     49 H17        -0.3320    1.6910    6.4960 ha        1 33T      0.181000
     50 H33         9.5250    1.0970   -2.5290 hn        1 33T      0.470467
@<TRIPOS>BOND
     1    1    2 1   
     2    1   32 1   
     3    1   33 1   
     4    1   34 1   
     5    2    3 1   
     6    2    7 1   
     7    2   35 1   
     8    3    4 1   
     9    3   36 1   
    10    3   37 1   
    11    4    5 1   
    12    4   21 1   
    13    5    6 1   
    14    5   38 1   
    15    5   39 1   
    16    6    7 1   
    17    6   40 1   
    18    6   41 1   
    19    7    8 1   
    20    8    9 2   
    21    8   10 2   
    22    8   11 1   
    23   11   12 ar  
    24   11   16 ar  
    25   12   13 ar  
    26   12   42 1   
    27   13   14 ar  
    28   13   43 1   
    29   14   15 ar  
    30   14   18 1   
    31   15   16 ar  
    32   15   44 1   
    33   16   17 1   
    34   18   19 2   
    35   18   20 1   
    36   20   45 1   
    37   20   46 1   
    38   20   50 1   
    39   21   22 ar  
    40   21   26 ar  
    41   22   23 ar  
    42   22   47 1   
    43   23   24 ar  
    44   23   48 1   
    45   24   25 ar  
    46   24   31 1   
    47   25   26 ar  
    48   25   49 1   
    49   26   27 1   
    50   27   28 1   
    51   27   29 1   
    52   27   30 1   
@<TRIPOS>SUBSTRUCTURE
     1 33T         1 TEMP              0 ****  ****    0 ROOT
