@<TRIPOS>MOLECULE
33T
   50    52     1     0     0
SMALL
bcc


@<TRIPOS>ATOM
      1 C1          0.5130   -0.3810   -0.0220 c3        1 33T     -0.119100
      2 C2          1.9580    0.0570    0.2080 c3        1 33T      0.247500
      3 C3          2.2480    0.1020    1.7340 c3        1 33T      0.178800
      4 N1          1.6800    1.2840    2.3600 nh        1 33T     -0.637000
      5 C4          2.1180    2.5200    1.7290 c3        1 33T      0.172800
      6 C5          1.8380    2.5040    0.2110 c3        1 33T      0.213800
      7 N2          2.3030    1.3070   -0.4550 n3        1 33T     -0.826500
      8 S1          2.9310    1.3360   -1.9260 sy        1 33T      1.486200
      9 O1          2.3960    0.3310   -2.7490 o         1 33T     -0.621800
     10 O2          3.0080    2.6330   -2.4510 o         1 33T     -0.621800
     11 C6          4.6090    0.8110   -1.6670 ca        1 33T     -0.230500
     12 C7          4.9740   -0.4080   -2.2440 ca        1 33T     -0.033000
     13 C8          6.2920   -0.8670   -2.2150 ca        1 33T     -0.068000
     14 C9          7.2760   -0.0790   -1.6030 ca        1 33T     -0.159600
     15 C10         6.9300    1.1290   -0.9850 ca        1 33T     -0.128000
     16 C11         5.5980    1.5590   -1.0120 ca        1 33T      0.112400
     17 Cl1         5.2300    3.0130   -0.2340 cl        1 33T     -0.016400
     18 C12         8.6500   -0.5820   -1.6220 c         1 33T      0.574700
     19 O3          9.0710   -1.7250   -1.5900 o         1 33T     -0.388100
     20 N3          9.7360    0.4800   -1.7510 nz        1 33T     -0.765400
     21 C13         1.7550    1.2950    3.7870 ca        1 33T      0.122600
     22 C14         2.9540    1.0630    4.4900 ca        1 33T     -0.140000
     23 C15         2.9860    1.0550    5.8780 ca        1 33T     -0.133000
     24 C16         1.8020    1.2870    6.6020 ca        1 33T      0.134900
     25 C17         0.5950    1.5230    5.9200 ca        1 33T     -0.118000
     26 C18         0.5740    1.5250    4.5280 ca        1 33T     -0.120300
     27 C19        -0.7550    1.7820    3.8150 c3        1 33T      0.701200
     28 F1         -1.1690    0.7680    2.9890 f         1 33T     -0.231300
     29 F2         -1.8230    1.9740    4.6590 f         1 33T     -0.231300
     30 F3         -0.7600    2.9040    3.0230 f         1 33T     -0.231300
     31 F4          1.8230    1.2830    7.9540 f         1 33T     -0.119900
     32 H1         -0.2010    0.3130    0.4850 hc        1 33T      0.063367
     33 H1A         0.3750   -1.4030    0.4060 hc        1 33T      0.063367
     34 H1B         0.2770   -0.4180   -1.1130 hc        1 33T      0.063367
     35 H2          2.6400   -0.7390   -0.2250 h1        1 33T      0.040700
     36 H3          1.7760   -0.8060    2.2030 h1        1 33T      0.045700
     37 H3A         3.3650    0.0380    1.8880 h1        1 33T      0.045700
     38 H4          3.2160    2.7140    1.9050 h1        1 33T      0.052700
     39 H4A         1.5280    3.3690    2.1760 h1        1 33T      0.052700
     40 H5          2.3410    3.4050   -0.2460 h1        1 33T      0.076700
     41 H5A         0.7230    2.5970    0.0550 h1        1 33T      0.076700
     42 H7          4.2030   -1.0250   -2.7540 ha        1 33T      0.207000
     43 H8          6.5540   -1.8360   -2.6740 ha        1 33T      0.177000
     44 H10         7.6750    1.7400   -0.4520 ha        1 33T      0.143000
     45 HN3         9.7810    1.0400   -0.8950 hn        1 33T      0.470467
     46 HN3A        9.5210    1.0980   -2.5390 hn        1 33T      0.470467
     47 H14         3.8890    0.8830    3.9360 ha        1 33T      0.138000
     48 H15         3.9260    0.8710    6.4190 ha        1 33T      0.159000
     49 H17        -0.3300    1.7040    6.4960 ha        1 33T      0.181000
     50 H33        10.6490    0.0320   -1.9060 hn        1 33T      0.470467
@<TRIPOS>BOND
     1    1    2 1   
     2    1   32 1   
     3    1   33 1   
     4    1   34 1   
     5    2    3 1   
     6    2    7 1   
     7    2   35 1   
     8    3    4 1   
     9    3   36 1   
    10    3   37 1   
    11    4    5 1   
    12    4   21 1   
    13    5    6 1   
    14    5   38 1   
    15    5   39 1   
    16    6    7 1   
    17    6   40 1   
    18    6   41 1   
    19    7    8 1   
    20    8    9 2   
    21    8   10 2   
    22    8   11 1   
    23   11   12 ar  
    24   11   16 ar  
    25   12   13 ar  
    26   12   42 1   
    27   13   14 ar  
    28   13   43 1   
    29   14   15 ar  
    30   14   18 1   
    31   15   16 ar  
    32   15   44 1   
    33   16   17 1   
    34   18   19 2   
    35   18   20 1   
    36   20   45 1   
    37   20   46 1   
    38   20   50 1   
    39   21   22 ar  
    40   21   26 ar  
    41   22   23 ar  
    42   22   47 1   
    43   23   24 ar  
    44   23   48 1   
    45   24   25 ar  
    46   24   31 1   
    47   25   26 ar  
    48   25   49 1   
    49   26   27 1   
    50   27   28 1   
    51   27   29 1   
    52   27   30 1   
@<TRIPOS>SUBSTRUCTURE
     1 33T         1 TEMP              0 ****  ****    0 ROOT
