@<TRIPOS>MOLECULE
33T
   49    51     1     0     0
SMALL
bcc


@<TRIPOS>ATOM
      1 C1          0.7340   -2.6000   -1.8710 c3        1 33T     -0.113100
      2 C2         -0.0250   -1.4650   -1.1850 c3        1 33T      0.250500
      3 C3          0.8820   -0.2050   -1.1150 c3        1 33T      0.167800
      4 N1          1.8810   -0.2940   -0.0590 nh        1 33T     -0.629000
      5 C4          1.3090   -0.6170    1.2430 c3        1 33T      0.161800
      6 C5          0.3980   -1.8610    1.1830 c3        1 33T      0.222800
      7 N2         -0.5660   -1.8220    0.1130 n3        1 33T     -0.816500
      8 S1         -2.1130   -2.2680    0.3000 sy        1 33T      1.500200
      9 O1         -2.5010   -3.1410   -0.7400 o         1 33T     -0.641800
     10 O2         -2.3440   -2.7320    1.6080 o         1 33T     -0.641800
     11 C6         -2.9770   -0.8020    0.0460 ca        1 33T     -0.330500
     12 C7         -3.7560   -0.7210   -1.1180 ca        1 33T     -0.037000
     13 C8         -4.5360    0.3960   -1.4020 ca        1 33T     -0.108000
     14 C9         -4.5580    1.4680   -0.5040 ca        1 33T     -0.075600
     15 C10        -3.7870    1.4220    0.6570 ca        1 33T     -0.135000
     16 C11        -3.0000    0.2940    0.9180 ca        1 33T      0.118400
     17 CL1        -2.0660    0.3020    2.3370 cl        1 33T     -0.068400
     18 C12        -5.3950    2.6620   -0.8340 c         1 33T      0.662700
     19 O3         -5.4270    3.1380   -1.9860 o         1 33T     -0.593100
     20 N3         -6.1340    3.2250    0.1760 n         1 33T     -0.667000
     21 C13         2.7680    0.8290   -0.0180 ca        1 33T      0.129600
     22 C14         2.3120    2.1630    0.0400 ca        1 33T     -0.138000
     23 C15         3.2010    3.2290    0.0540 ca        1 33T     -0.131000
     24 C16         4.5850    2.9810    0.0160 ca        1 33T      0.121900
     25 C17         5.0620    1.6610   -0.0350 ca        1 33T     -0.124000
     26 C18         4.1610    0.5980   -0.0520 ca        1 33T     -0.124300
     27 C19         4.7120   -0.8270   -0.1050 c3        1 33T      0.702200
     28 F1          4.3230   -1.5560   -1.2000 f         1 33T     -0.234300
     29 F2          6.0860   -0.9020   -0.1400 f         1 33T     -0.234300
     30 F3          4.3770   -1.6050    0.9750 f         1 33T     -0.234300
     31 F4          5.4590    4.0140    0.0290 f         1 33T     -0.129900
     32 H1          0.0960   -3.5150   -1.9380 hc        1 33T      0.055033
     33 H1A         1.0070   -2.2780   -2.9040 hc        1 33T      0.055033
     34 H1B         1.6700   -2.8470   -1.3160 hc        1 33T      0.055033
     35 H2         -0.9060   -1.1870   -1.8440 h1        1 33T      0.051700
     36 H3          1.4260   -0.1140   -2.0960 h1        1 33T      0.046200
     37 H3A         0.2200    0.7010   -0.9940 h1        1 33T      0.046200
     38 H4          2.1620   -0.8490    1.9420 h1        1 33T      0.050200
     39 H4A         0.7250    0.2500    1.6680 h1        1 33T      0.050200
     40 H5          1.0510   -2.7740    1.0550 h1        1 33T      0.070200
     41 H5A        -0.1430   -1.9440    2.1700 h1        1 33T      0.070200
     42 H7         -3.7560   -1.5730   -1.8270 ha        1 33T      0.179000
     43 H8         -5.1280    0.4490   -2.3300 ha        1 33T      0.167000
     44 H10        -3.7810    2.2690    1.3610 ha        1 33T      0.157000
     45 HN3        -6.1760    2.8090    1.0700 hn        1 33T      0.318000
     46 HN3A       -6.7290    3.9900   -0.0280 hn        1 33T      0.318000
     47 H14         1.2300    2.3700    0.0760 ha        1 33T      0.149000
     48 H15         2.8340    4.2660    0.0970 ha        1 33T      0.158000
     49 H17         6.1490    1.4740   -0.0630 ha        1 33T      0.173000
@<TRIPOS>BOND
     1    1    2 1   
     2    1   32 1   
     3    1   33 1   
     4    1   34 1   
     5    2    3 1   
     6    2    7 1   
     7    2   35 1   
     8    3    4 1   
     9    3   36 1   
    10    3   37 1   
    11    4    5 1   
    12    4   21 1   
    13    5    6 1   
    14    5   38 1   
    15    5   39 1   
    16    6    7 1   
    17    6   40 1   
    18    6   41 1   
    19    7    8 1   
    20    8    9 2   
    21    8   10 2   
    22    8   11 1   
    23   11   12 ar  
    24   11   16 ar  
    25   12   13 ar  
    26   12   42 1   
    27   13   14 ar  
    28   13   43 1   
    29   14   15 ar  
    30   14   18 1   
    31   15   16 ar  
    32   15   44 1   
    33   16   17 1   
    34   18   19 2   
    35   18   20 1   
    36   20   45 1   
    37   20   46 1   
    38   21   22 ar  
    39   21   26 ar  
    40   22   23 ar  
    41   22   47 1   
    42   23   24 ar  
    43   23   48 1   
    44   24   25 ar  
    45   24   31 1   
    46   25   26 ar  
    47   25   49 1   
    48   26   27 1   
    49   27   28 1   
    50   27   29 1   
    51   27   30 1   
@<TRIPOS>SUBSTRUCTURE
     1 33T         1 TEMP              0 ****  ****    0 ROOT
