@<TRIPOS>MOLECULE
33T
   49    46     1     0     0
SMALL
bcc


@<TRIPOS>ATOM
      1 C1         -2.1890   -1.2040    0.2490 c3        1 33T     -0.232000
      2 C2         -0.6550   -1.1590    0.3050 c3        1 33T      0.009000
      3 C3         -0.2150   -1.1270    1.7670 c3        1 33T     -0.060000
      4 N1         -0.5550    0.1280    2.4190 n3        1 33T     -0.241000
      5 C4         -0.0990    1.2810    1.6770 c3        1 33T     -0.065000
      6 C5         -0.5400    1.2420    0.2170 c3        1 33T     -0.038000
      7 N2         -0.2000   -0.0120   -0.4330 n3        1 33T     -0.829000
      8 S1         -0.0970   -0.0820   -2.0760 s4        1 33T      2.055800
      9 O1         -0.6190   -1.3290   -2.5800 o         1 33T     -0.529900
     10 O2         -0.9950    0.8700   -2.7010 o         1 33T     -0.529900
     11 C6          1.5760    0.1760   -2.5970 c1        1 33T     -0.781000
     12 C7          2.0970    1.4640   -2.6320 c2        1 33T     -0.038000
     13 C8          3.3630    1.6900   -3.1600 c1        1 33T     -0.108000
     14 C9          4.1130    0.6200   -3.6580 c1        1 33T     -0.052000
     15 C10         3.5920   -0.6680   -3.6230 c1        1 33T     -0.133000
     16 C11         2.3230   -0.8920   -3.0930 c1        1 33T      0.043000
     17 CL1         1.6080   -2.4660   -3.2110 cl        1 33T      0.014000
     18 C12         5.5750    0.8410   -4.0890 c2        1 33T      0.336000
     19 O3          6.0940    1.9790   -3.9940 o         1 33T     -0.354000
     20 N3          6.3610   -0.2840   -4.6220 n         1 33T     -0.427000
     21 C13        -2.0190    0.2050    2.6060 c2        1 33T      0.067000
     22 C14        -2.7690    1.1680    1.9070 c2        1 33T     -0.150000
     23 C15        -4.1130    1.3150    2.1650 c1        1 33T     -0.125000
     24 C16        -4.7370    0.5050    3.1270 c1        1 33T      0.078000
     25 C17        -4.0010   -0.4440    3.8170 c1        1 33T     -0.118000
     26 C18        -2.6370   -0.5960    3.5570 c1        1 33T     -0.134000
     27 C19        -1.7990   -1.4740    4.4500 c3        1 33T      0.479000
     28 F1         -1.4630   -2.5600    3.8030 f         1 33T     -0.163667
     29 F2         -0.7040   -0.8200    4.8110 f         1 33T     -0.163667
     30 F3         -2.4980   -1.8020    5.5340 f         1 33T     -0.163667
     31 F4         -6.0700    0.5910    3.3180 f         1 33T     -0.095000
     32 H1         -2.5570   -0.9940    1.1360 hc        1 33T      0.086667
     33 H1A        -2.4840   -2.1090   -0.0260 hc        1 33T      0.086667
     34 H1B        -2.5090   -0.5480   -0.4000 hc        1 33T      0.086667
     35 H2         -0.2890   -1.9910   -0.1270 h1        1 33T      0.123000
     36 H3         -0.6510   -1.8620    2.2450 h1        1 33T      0.112000
     37 H3A         0.7300   -1.2500    1.8090 h1        1 33T      0.112000
     38 H4         -0.4560    2.0810    2.0910 h1        1 33T      0.108000
     39 H4A         0.8810    1.3150    1.7130 h1        1 33T      0.108000
     40 H5         -1.5220    1.3670    0.1770 h1        1 33T      0.091000
     41 H5A        -0.0880    2.0080   -0.2870 h1        1 33T      0.091000
     42 H7          1.5640    2.2240   -2.2780 ha        1 33T      0.178000
     43 H8          3.7190    2.5750   -3.1840 ha        1 33T      0.168000
     44 H10         4.1190   -1.4230   -3.9740 ha        1 33T      0.158000
     45 HN3         7.1150   -0.1240   -5.1010 hn        1 33T      0.232000
     46 HN3A        6.1060   -1.1570   -4.4360 hn        1 33T      0.232000
     47 H14        -2.3280    1.7430    1.2240 ha        1 33T      0.149000
     48 H15        -4.6440    1.9980    1.6700 ha        1 33T      0.158000
     49 H17        -4.4360   -1.0070    4.4850 ha        1 33T      0.172000
@<TRIPOS>BOND
     1    1    2 1   
     2    1   32 1   
     3    1   33 1   
     4    1   34 1   
     5    2    3 1   
     6    2    7 1   
     7    2   35 1   
     8    3    4 1   
     9    3   36 1   
    10    3   37 1   
    11    4    5 1   
    12    4   21 1   
    13    5    6 1   
    14    5   38 1   
    15    5   39 1   
    16    6    7 1   
    17    6   40 1   
    18    6   41 1   
    19    7    8 1   
    20    8    9 1   
    21    8   10 1   
    22   11   12 1   
    23   11   16 1   
    24   12   13 1   
    25   12   42 1   
    26   13   43 1   
    27   14   15 1   
    28   14   18 1   
    29   15   44 1   
    30   16   17 1   
    31   18   19 1   
    32   18   20 1   
    33   20   45 1   
    34   20   46 1   
    35   21   22 1   
    36   21   26 1   
    37   22   23 1   
    38   22   47 1   
    39   23   48 1   
    40   24   25 1   
    41   24   31 1   
    42   25   49 1   
    43   26   27 1   
    44   27   28 1   
    45   27   29 1   
    46   27   30 1   
@<TRIPOS>SUBSTRUCTURE
     1 33T         1 TEMP              0 ****  ****    0 ROOT
