@<TRIPOS>MOLECULE
33U
   66    61     1     0     0
SMALL
bcc


@<TRIPOS>ATOM
      1 C37         3.2810   -2.2840    1.3680 c1        1 33U     -0.109000
      2 C26         3.7860   -3.5250    1.7750 c1        1 33U     -0.126000
      3 C25         5.1390   -3.8240    1.5920 c1        1 33U     -0.126000
      4 C34         5.9880   -2.8830    1.0030 c1        1 33U     -0.126000
      5 C23         5.4830   -1.6400    0.5960 c1        1 33U     -0.126000
      6 C7          4.1300   -1.3420    0.7790 c1        1 33U     -0.067000
      7 C8          3.5480    0.0230    0.2590 c3        1 33U     -0.059000
      8 C9          2.1670   -0.2070   -0.3380 c3        1 33U     -0.042000
      9 C10         2.2200   -1.3910   -1.3130 c2        1 33U      0.325000
     10 O32         3.2110   -2.0990   -1.3530 o         1 33U     -0.364000
     11 N2          1.7510    0.9600   -1.0280 n3        1 33U     -0.343000
     12 C1          3.4440    0.9910    1.4010 c2        1 33U     -0.077000
     13 C6          2.4940    0.7900    2.3950 c2        1 33U     -0.134000
     14 C5          2.4920    1.5910    3.5200 c1        1 33U     -0.129000
     15 C4          3.4480    2.6060    3.6600 c1        1 33U     -0.126000
     16 C3          4.3860    2.8040    2.6790 c1        1 33U     -0.126000
     17 C2          4.3880    1.9930    1.5400 c1        1 33U     -0.124000
     18 N1          1.1600   -1.5450   -2.3460 n         1 33U     -0.306000
     19 C14         0.0460   -0.8560   -2.4290 c3        1 33U      0.016000
     20 C15        -0.5000   -0.3530   -1.0640 c2        1 33U      0.284000
     21 O22         0.1400   -0.5360   -0.0510 o         1 33U     -0.356000
     22 C13        -0.9370   -1.9050   -3.1900 c3        1 33U     -0.165000
     23 C12        -0.0490   -3.0200   -3.7110 c3        1 33U     -0.173000
     24 C11         1.1660   -2.5890   -3.5780 c3        1 33U     -0.031000
     25 N23        -1.8520    0.2100   -0.9830 n         1 33U     -0.374000
     26 C16        -2.7190   -0.1230    0.1510 c3        1 33U      0.005000
     27 C17        -4.0490    0.7420    0.0720 c2        1 33U     -0.101000
     28 C22        -3.9690    2.1320   -0.0900 c2        1 33U     -0.123000
     29 C21        -5.1280    2.9110   -0.0300 c1        1 33U     -0.101000
     30 C24        -6.3670    2.3050    0.1900 c1        1 33U     -0.109000
     31 C27        -7.6560    3.1810    0.2970 c2        1 33U      0.113000
     32 N35        -8.3860    3.4140   -0.7770 n1        1 33U     -0.301000
     33 N34        -8.0460    3.7310    1.5630 n3        1 33U     -0.332000
     34 C19        -6.4480    0.9280    0.3510 c1        1 33U     -0.115000
     35 C18        -5.2800    0.1410    0.2910 c1        1 33U     -0.124000
     36 H37         2.3400   -2.0770    1.4960 ha        1 33U      0.136000
     37 H26         3.1850   -4.1900    2.1900 ha        1 33U      0.131167
     38 H25         5.4930   -4.6960    1.8770 ha        1 33U      0.131167
     39 H34         6.9490   -3.0950    0.8730 ha        1 33U      0.131167
     40 H23         6.0870   -0.9730    0.1780 ha        1 33U      0.131167
     41 H8          4.1380    0.3880   -0.4220 hc        1 33U      0.124000
     42 H9          1.5340   -0.4040    0.3740 h1        1 33U      0.125000
     43 HN2         2.3530    1.6560   -0.8540 hn        1 33U      0.157000
     44 HN2A        0.9090    1.2040   -0.7400 hn        1 33U      0.157000
     45 H6          1.8300    0.0860    2.2980 ha        1 33U      0.131000
     46 H5          1.8260    1.4500    4.2170 ha        1 33U      0.138000
     47 H4          3.4470    3.1710    4.4540 ha        1 33U      0.131167
     48 H3          5.0530    3.5120    2.7770 ha        1 33U      0.131167
     49 H2          5.0640    2.1350    0.8350 ha        1 33U      0.135000
     50 H14         0.1590   -0.0240   -2.9230 h1        1 33U      0.126000
     51 H13        -1.3970   -1.4540   -3.9440 hc        1 33U      0.098500
     52 H13A       -1.5940   -2.2650   -2.5620 hc        1 33U      0.098500
     53 H12        -0.2500   -3.2010   -4.6770 hc        1 33U      0.095000
     54 H12A       -0.1820   -3.8420   -3.1740 hc        1 33U      0.095000
     55 H11         1.4490   -2.1390   -4.3930 h1        1 33U      0.104000
     56 H11A        1.7680   -3.3370   -3.3810 h1        1 33U      0.104000
     57 HN23       -2.1730    0.7580   -1.6740 hn        1 33U      0.220000
     58 H16        -2.9470   -1.0770    0.1190 h1        1 33U      0.111000
     59 H16A       -2.2530    0.0720    0.9860 h1        1 33U      0.111000
     60 H22        -3.1130    2.5510   -0.2430 ha        1 33U      0.154000
     61 H21        -5.0720    3.8660   -0.1410 ha        1 33U      0.151000
     62 HN35       -8.1350    3.0610   -1.5890 DU        1 33U      0.150000
     63 HN34       -8.6430    4.4280    1.5960 hn        1 33U      0.194500
     64 HN3A       -7.6680    3.4140    2.3370 hn        1 33U      0.194500
     65 H19        -7.3030    0.5100    0.5030 ha        1 33U      0.140000
     66 H18        -5.3370   -0.8140    0.4040 ha        1 33U      0.135000
@<TRIPOS>BOND
     1    1    6 1   
     2    1   36 1   
     3    2    3 1   
     4    2   37 1   
     5    3   38 1   
     6    4    5 1   
     7    4   39 1   
     8    5   40 1   
     9    6    7 1   
    10    7    8 1   
    11    7   12 1   
    12    7   41 1   
    13    8    9 1   
    14    8   11 1   
    15    8   42 1   
    16    9   10 1   
    17    9   18 1   
    18   11   43 1   
    19   11   44 1   
    20   12   13 1   
    21   12   17 1   
    22   13   14 1   
    23   13   45 1   
    24   14   46 1   
    25   15   16 1   
    26   15   47 1   
    27   16   48 1   
    28   17   49 1   
    29   18   19 1   
    30   18   24 1   
    31   19   20 1   
    32   19   22 1   
    33   19   50 1   
    34   20   21 1   
    35   20   25 1   
    36   22   23 1   
    37   22   51 1   
    38   22   52 1   
    39   23   24 1   
    40   23   53 1   
    41   23   54 1   
    42   24   55 1   
    43   24   56 1   
    44   25   26 1   
    45   25   57 1   
    46   26   27 1   
    47   26   58 1   
    48   26   59 1   
    49   27   28 1   
    50   27   35 1   
    51   28   29 1   
    52   28   60 1   
    53   29   61 1   
    54   30   31 1   
    55   30   34 1   
    56   31   32 1   
    57   31   33 1   
    58   33   63 1   
    59   33   64 1   
    60   34   65 1   
    61   35   66 1   
@<TRIPOS>SUBSTRUCTURE
     1 33U         1 TEMP              0 ****  ****    0 ROOT
