@<TRIPOS>MOLECULE
33U
   66    69     1     0     0
SMALL
bcc


@<TRIPOS>ATOM
      1 C37         4.9890    1.1070    1.4180 ca        1 33U     -0.127500
      2 C26         6.1270    1.9090    1.3440 ca        1 33U     -0.129250
      3 C25         6.8530    1.9880    0.1560 ca        1 33U     -0.126500
      4 C34         6.4370    1.2600   -0.9590 ca        1 33U     -0.129250
      5 C23         5.3010    0.4570   -0.8870 ca        1 33U     -0.127500
      6 C7          4.5660    0.3730    0.3030 ca        1 33U     -0.091800
      7 C8          3.3290   -0.4680    0.4010 c3        1 33U     -0.007100
      8 C9          2.3660   -0.1410   -0.7860 c3        1 33U      0.116500
      9 C10         0.9870    0.1910   -0.1710 c         1 33U      0.666100
     10 O32         0.1560   -0.7140    0.0690 o         1 33U     -0.636100
     11 N2          2.2320   -1.1450   -1.8180 n3        1 33U     -0.891800
     12 C1          3.6090   -1.9350    0.5180 ca        1 33U     -0.091800
     13 C6          4.8940   -2.4690    0.3820 ca        1 33U     -0.127500
     14 C5          5.1090   -3.8390    0.5360 ca        1 33U     -0.129250
     15 C4          4.0440   -4.6890    0.8270 ca        1 33U     -0.126500
     16 C3          2.7580   -4.1640    0.9630 ca        1 33U     -0.129250
     17 C2          2.5410   -2.7970    0.8100 ca        1 33U     -0.127500
     18 N1          0.6730    1.5090    0.0870 n         1 33U     -0.454800
     19 C14        -0.5430    1.8850    0.8010 c3        1 33U      0.031700
     20 C15        -1.7690    2.0420   -0.1310 c         1 33U      0.652100
     21 O22        -2.4350    3.0970   -0.1440 o         1 33U     -0.625100
     22 C13        -0.2380    3.2080    1.5370 c3        1 33U     -0.088400
     23 C12         1.1060    3.6980    1.0110 c3        1 33U     -0.090400
     24 C11         1.6530    2.5810    0.1070 c3        1 33U      0.082000
     25 N23        -2.0890    0.9700   -0.9310 n         1 33U     -0.548900
     26 C16        -3.2610    0.9630   -1.7630 c3        1 33U      0.131300
     27 C17        -4.4970    0.4080   -1.1090 ca        1 33U     -0.107300
     28 C22        -5.0110   -0.8320   -1.4940 ca        1 33U     -0.124000
     29 C21        -6.1760   -1.3240   -0.9040 ca        1 33U     -0.104000
     30 C24        -6.8320   -0.5720    0.0740 ca        1 33U     -0.139900
     31 C27        -8.0850   -1.1010    0.7010 ce        1 33U      0.651800
     32 N35        -8.0830   -2.3140    1.1650 n2        1 33U     -0.827100
     33 N34        -9.1370   -0.1600    0.7770 nh        1 33U     -0.959800
     34 C19        -6.3130    0.6660    0.4720 ca        1 33U     -0.104000
     35 C18        -5.1500    1.1530   -0.1200 ca        1 33U     -0.124000
     36 H37         4.4240    1.0480    2.3610 ha        1 33U      0.143250
     37 H26         6.4530    2.4790    2.2270 ha        1 33U      0.135250
     38 H25         7.7500    2.6210    0.0980 ha        1 33U      0.134000
     39 H34         7.0070    1.3190   -1.8980 ha        1 33U      0.135250
     40 H23         4.9810   -0.1170   -1.7700 ha        1 33U      0.143250
     41 H8          2.7980   -0.1760    1.3580 hc        1 33U      0.069700
     42 H9          2.7670    0.7770   -1.3160 h1        1 33U      0.085700
     43 HN2         3.1280   -1.5500   -2.0150 hn        1 33U      0.365300
     44 HN2A        1.6030   -1.8720   -1.5290 hn        1 33U      0.365300
     45 H6          5.7470   -1.8100    0.1560 ha        1 33U      0.143250
     46 H5          6.1260   -4.2460    0.4280 ha        1 33U      0.135250
     47 H4          4.2150   -5.7680    0.9500 ha        1 33U      0.134000
     48 H3          1.9130   -4.8290    1.1930 ha        1 33U      0.135250
     49 H2          1.5210   -2.3860    0.9140 ha        1 33U      0.143250
     50 H14        -0.8100    1.0730    1.5420 h1        1 33U      0.085700
     51 H13        -1.0440    3.9620    1.3520 hc        1 33U      0.074700
     52 H13A       -0.1890    3.0140    2.6370 hc        1 33U      0.074700
     53 H12         0.9820    4.6400    0.4230 hc        1 33U      0.057200
     54 H12A        1.8160    3.9040    1.8480 hc        1 33U      0.057200
     55 H11         2.6410    2.2030    0.4950 h1        1 33U      0.055200
     56 H11A        1.8070    2.9590   -0.9420 h1        1 33U      0.055200
     57 HN23       -1.6450    0.0920   -0.7630 hn        1 33U      0.338500
     58 H16        -3.4770    2.0240   -2.0860 h1        1 33U      0.067700
     59 H16A       -3.0200    0.3530   -2.6820 h1        1 33U      0.067700
     60 H22        -4.4970   -1.4280   -2.2630 ha        1 33U      0.146500
     61 H21        -6.5690   -2.3080   -1.2010 ha        1 33U      0.145500
     62 HN35       -8.9350   -2.6350    1.5750 hn        1 33U      0.381400
     63 HN34       -9.0630    0.6140    0.1590 hn        1 33U      0.398800
     64 HN3A      -10.0560   -0.5230    0.8700 hn        1 33U      0.398800
     65 H19        -6.8120    1.2510    1.2590 ha        1 33U      0.145500
     66 H18        -4.7320    2.1270    0.1860 ha        1 33U      0.146500
@<TRIPOS>BOND
     1    1    2 ar  
     2    1    6 ar  
     3    1   36 1   
     4    2    3 ar  
     5    2   37 1   
     6    3    4 ar  
     7    3   38 1   
     8    4    5 ar  
     9    4   39 1   
    10    5    6 ar  
    11    5   40 1   
    12    6    7 1   
    13    7    8 1   
    14    7   12 1   
    15    7   41 1   
    16    8    9 1   
    17    8   11 1   
    18    8   42 1   
    19    9   10 2   
    20    9   18 1   
    21   11   43 1   
    22   11   44 1   
    23   12   13 ar  
    24   12   17 ar  
    25   13   14 ar  
    26   13   45 1   
    27   14   15 ar  
    28   14   46 1   
    29   15   16 ar  
    30   15   47 1   
    31   16   17 ar  
    32   16   48 1   
    33   17   49 1   
    34   18   19 1   
    35   18   24 1   
    36   19   20 1   
    37   19   22 1   
    38   19   50 1   
    39   20   21 2   
    40   20   25 1   
    41   22   23 1   
    42   22   51 1   
    43   22   52 1   
    44   23   24 1   
    45   23   53 1   
    46   23   54 1   
    47   24   55 1   
    48   24   56 1   
    49   25   26 1   
    50   25   57 1   
    51   26   27 1   
    52   26   58 1   
    53   26   59 1   
    54   27   28 ar  
    55   27   35 ar  
    56   28   29 ar  
    57   28   60 1   
    58   29   30 ar  
    59   29   61 1   
    60   30   31 1   
    61   30   34 ar  
    62   31   32 2   
    63   31   33 1   
    64   32   62 1   
    65   33   63 1   
    66   33   64 1   
    67   34   35 ar  
    68   34   65 1   
    69   35   66 1   
@<TRIPOS>SUBSTRUCTURE
     1 33U         1 TEMP              0 ****  ****    0 ROOT
