@<TRIPOS>MOLECULE
33V
   43    45     1     0     0
SMALL
bcc


@<TRIPOS>ATOM
      1 S1         -0.6730   -0.0860    1.6150 ss        1 33V     -0.358200
      2 C2          0.6110   -0.1760    0.3960 c3        1 33V     -0.010300
      3 C3          2.0460    0.0580    0.8500 c3        1 33V      0.035500
      4 N4          2.3560    1.3320    1.4590 n7        1 33V     -0.810200
      5 C5          1.4780    1.8050    2.4900 c3        1 33V      0.168800
      6 C6          0.1900    2.5460    2.0640 c3        1 33V     -0.145700
      7 C7         -0.0770    3.6760    3.0620 c3        1 33V      0.134400
      8 O8          0.7110    4.8230    2.8010 oh        1 33V     -0.613800
      9 C31         2.9100   -0.1510   -0.4630 c         1 33V      0.925600
     10 O32         2.9390    0.8050   -1.2850 o         1 33V     -0.825800
     11 O33         3.4650   -1.2690   -0.6000 o         1 33V     -0.825800
     12 C61        -1.0170    1.6210    2.0010 c3        1 33V      0.039400
     13 C62        -2.1210    2.2490    1.1360 c3        1 33V      0.148500
     14 N63        -3.4160    1.5100    1.2920 n7        1 33V     -0.549000
     15 N64        -3.8430    1.0720    0.0290 n3        1 33V     -0.516400
     16 C65        -2.6870    1.1480   -0.9260 c3        1 33V      0.134500
     17 C66        -1.8010    2.2770   -0.3790 c3        1 33V     -0.092400
     18 C67        -4.4360   -0.2580   -0.0260 c3        1 33V      0.273900
     19 S68        -5.1670   -0.5070   -1.6570 ss        1 33V     -0.358200
     20 C69        -3.9290    0.0830   -2.7900 c3        1 33V      0.008700
     21 C70        -3.1950    1.3280   -2.3490 c3        1 33V     -0.062400
     22 H2          0.3850    0.4900   -0.4700 h1        1 33V      0.077200
     23 H1          0.5360   -1.2390    0.0460 h1        1 33V      0.077200
     24 H3          2.3270   -0.7420    1.5920 h1        1 33V      0.060700
     25 H41         2.5040    2.0240    0.7450 hn        1 33V      0.379800
     26 H7          2.0920    2.5230    3.1120 h1        1 33V      0.043700
     27 H6          1.1910    0.9410    3.1550 h1        1 33V      0.043700
     28 H8          0.3480    3.0150    1.0520 hc        1 33V      0.069700
     29 H9          0.1160    3.3200    4.1110 h1        1 33V      0.036200
     30 H72        -1.1340    4.0500    2.9970 h1        1 33V      0.036200
     31 H81         1.6160    4.5250    2.6420 ho        1 33V      0.408000
     32 H13        -1.4280    1.5120    3.0470 h1        1 33V      0.078700
     33 H14        -2.2580    3.3110    1.4930 h1        1 33V      0.042700
     34 H15        -4.1180    2.1850    1.5770 hn        1 33V      0.347800
     35 H16        -2.0720    0.1940   -0.8880 h1        1 33V      0.071700
     36 H17        -2.0860    3.2630   -0.8190 hc        1 33V      0.066700
     37 H18        -0.7230    2.0940   -0.5930 hc        1 33V      0.066700
     38 H20        -5.2930   -0.3310    0.6920 h2        1 33V      0.072200
     39 H19        -3.7130   -1.0900    0.1830 h2        1 33V      0.072200
     40 H21        -3.1930   -0.7400   -2.9700 h1        1 33V      0.066200
     41 H22        -4.4800    0.2730   -3.7440 h1        1 33V      0.066200
     42 H23        -3.8640    2.2240   -2.4220 hc        1 33V      0.057700
     43 H24        -2.3130    1.5050   -3.0220 hc        1 33V      0.057700
@<TRIPOS>BOND
     1    1    2 1   
     2    1   12 1   
     3    2    3 1   
     4    2   22 1   
     5    2   23 1   
     6    3    4 1   
     7    3    9 1   
     8    3   24 1   
     9    4    5 1   
    10    4   25 1   
    11    5    6 1   
    12    5   26 1   
    13    5   27 1   
    14    6    7 1   
    15    6   12 1   
    16    6   28 1   
    17    7    8 1   
    18    7   29 1   
    19    7   30 1   
    20    8   31 1   
    21    9   10 1   
    22    9   11 1   
    23   12   13 1   
    24   12   32 1   
    25   13   14 1   
    26   13   17 1   
    27   13   33 1   
    28   14   15 1   
    29   14   34 1   
    30   15   16 1   
    31   15   18 1   
    32   16   17 1   
    33   16   21 1   
    34   16   35 1   
    35   17   36 1   
    36   17   37 1   
    37   18   19 1   
    38   18   38 1   
    39   18   39 1   
    40   19   20 1   
    41   20   21 1   
    42   20   40 1   
    43   20   41 1   
    44   21   42 1   
    45   21   43 1   
@<TRIPOS>SUBSTRUCTURE
     1 33V         1 TEMP              0 ****  ****    0 ROOT
