@<TRIPOS>MOLECULE
33V
   43    45     1     0     0
SMALL
bcc


@<TRIPOS>ATOM
      1 S1         -0.1170    0.5090   -0.2260 ss        1 33V     -0.410200
      2 C2          1.3230   -0.4800    0.1510 c3        1 33V      0.061700
      3 C3          2.1390   -0.0630    1.3620 c3        1 33V      0.030500
      4 N4          2.5630    1.3250    1.2800 n3        1 33V     -0.822200
      5 C5          1.7670    2.2570    2.0390 c3        1 33V      0.182800
      6 C6          0.4390    2.6510    1.3530 c3        1 33V     -0.071700
      7 C7         -0.1670    3.8140    2.1360 c3        1 33V      0.128400
      8 O8          0.7670    4.8860    2.1330 oh        1 33V     -0.595800
      9 C31         3.3450   -1.0680    1.5300 c         1 33V      0.919600
     10 O32         4.4100   -0.6200    2.0330 o         1 33V     -0.827800
     11 O33         3.1420   -2.2640    1.1940 o         1 33V     -0.827800
     12 C61        -0.4960    1.4500    1.2540 c3        1 33V      0.049400
     13 C62        -1.9820    1.8200    1.2020 c3        1 33V      0.160500
     14 N63        -2.8600    0.6070    1.2990 n3        1 33V     -0.541000
     15 N64        -3.7040    0.5710    0.1780 n3        1 33V     -0.515400
     16 C65        -3.1350    1.4680   -0.8820 c3        1 33V      0.132500
     17 C66        -2.3620    2.5490   -0.1130 c3        1 33V     -0.090400
     18 C67        -3.9620   -0.7490   -0.3870 c3        1 33V      0.273900
     19 S68        -5.2700   -0.6110   -1.6230 ss        1 33V     -0.354200
     20 C69        -4.8160    0.8110   -2.5870 c3        1 33V      0.006700
     21 C70        -4.2470    1.9670   -1.7950 c3        1 33V     -0.061400
     22 H2          1.9470   -0.4310   -0.7740 h1        1 33V      0.079200
     23 H1          0.9900   -1.5360    0.3040 h1        1 33V      0.079200
     24 H3          1.5080   -0.2430    2.2870 h1        1 33V      0.016700
     25 H41         3.5300    1.3850    1.5590 hn        1 33V      0.398800
     26 H7          2.3680    3.2050    2.1600 h1        1 33V      0.022700
     27 H6          1.5130    1.8840    3.0770 h1        1 33V      0.022700
     28 H8          0.6690    3.0190    0.3140 hc        1 33V      0.087700
     29 H9         -1.1120    4.1740    1.6410 h1        1 33V      0.013200
     30 H72        -0.3950    3.5040    3.1910 h1        1 33V      0.013200
     31 H81         0.4340    5.5350    2.7630 ho        1 33V      0.386000
     32 H13        -0.3310    0.7900    2.1470 h1        1 33V      0.085700
     33 H14        -2.2080    2.4820    2.0860 h1        1 33V      0.037700
     34 H15        -3.4860    0.7470    2.0850 hn        1 33V      0.347800
     35 H16        -2.3780    0.9060   -1.5170 h1        1 33V      0.075700
     36 H17        -3.0020    3.4390    0.0980 hc        1 33V      0.061200
     37 H18        -1.4550    2.8740   -0.6750 hc        1 33V      0.061200
     38 H20        -3.0630   -1.2310   -0.8530 h2        1 33V      0.077200
     39 H19        -4.3750   -1.4320    0.3990 h2        1 33V      0.077200
     40 H21        -5.7560    1.1210   -3.1060 h1        1 33V      0.062700
     41 H22        -4.0770    0.4930   -3.3640 h1        1 33V      0.062700
     42 H23        -5.0540    2.4690   -1.2010 hc        1 33V      0.051700
     43 H24        -3.8170    2.7300   -2.4970 hc        1 33V      0.051700
@<TRIPOS>BOND
     1    1    2 1   
     2    1   12 1   
     3    2    3 1   
     4    2   22 1   
     5    2   23 1   
     6    3    4 1   
     7    3    9 1   
     8    3   24 1   
     9    4    5 1   
    10    4   25 1   
    11    5    6 1   
    12    5   26 1   
    13    5   27 1   
    14    6    7 1   
    15    6   12 1   
    16    6   28 1   
    17    7    8 1   
    18    7   29 1   
    19    7   30 1   
    20    8   31 1   
    21    9   10 1   
    22    9   11 1   
    23   12   13 1   
    24   12   32 1   
    25   13   14 1   
    26   13   17 1   
    27   13   33 1   
    28   14   15 1   
    29   14   34 1   
    30   15   16 1   
    31   15   18 1   
    32   16   17 1   
    33   16   21 1   
    34   16   35 1   
    35   17   36 1   
    36   17   37 1   
    37   18   19 1   
    38   18   38 1   
    39   18   39 1   
    40   19   20 1   
    41   20   21 1   
    42   20   40 1   
    43   20   41 1   
    44   21   42 1   
    45   21   43 1   
@<TRIPOS>SUBSTRUCTURE
     1 33V         1 TEMP              0 ****  ****    0 ROOT
