@<TRIPOS>MOLECULE
33Y
   56    47     1     0     0
SMALL
bcc


@<TRIPOS>ATOM
      1 F32        -3.4840   -1.9380    5.1190 f         1 33Y     -0.083000
      2 C24        -2.1790   -1.5650    5.0330 c1        1 33Y      0.054000
      3 C23        -1.4840   -1.1970    6.1830 c1        1 33Y     -0.013500
      4 F26        -2.1040   -1.1540    7.3400 f         1 33Y     -0.081000
      5 C22        -0.1160   -0.9040    6.1120 c1        1 33Y     -0.110500
      6 C21         0.5490   -0.9790    4.8980 c1        1 33Y     -0.110500
      7 C25        -1.5120   -1.6400    3.8120 c1        1 33Y     -0.113000
      8 C20        -0.1470   -1.3470    3.7420 c1        1 33Y     -0.013500
      9 C18         0.6160   -1.5820    2.4310 c1        1 33Y      0.353500
     10 O19         1.0550   -2.6830    2.1730 o         1 33Y     -0.333500
     11 N12         0.8500   -0.5190    1.5630 n2        1 33Y     -0.260000
     12 C13         0.3860    0.7930    1.7710 c3        1 33Y     -0.037000
     13 C14         0.8020    1.7170    0.6140 c3        1 33Y      0.016000
     14 C27         0.8910    3.2060    1.1460 c3        1 33Y     -0.207500
     15 C28         2.1940    1.2820    0.0840 c3        1 33Y     -0.207500
     16 C9         -0.2570    1.6630   -0.5630 c2        1 33Y     -0.150000
     17 C5         -1.3240    2.4130   -1.0170 c1        1 33Y     -0.065000
     18 C6         -1.6640    3.7760   -0.8640 c1        1 33Y     -0.127250
     19 C1         -2.8330    4.2870   -1.4850 c1        1 33Y     -0.127250
     20 C11         1.5970   -0.6160    0.3420 c2        1 33Y      0.066000
     21 C10         0.9050   -0.4150   -0.9810 c1        1 33Y     -0.174000
     22 C15         1.4990   -1.0520   -2.2780 c1        1 33Y      0.353500
     23 O17         0.8140   -2.1150   -2.9250 o         1 33Y     -0.295000
     24 C29         1.6520   -2.9240   -3.7340 c3        1 33Y      0.039000
     25 C31         1.0450   -4.3380   -3.8480 c3        1 33Y     -0.228500
     26 C30         1.7760   -2.3010   -5.1220 c3        1 33Y     -0.228500
     27 O16         2.4650   -0.5580   -2.7990 o         1 33Y     -0.333500
     28 C8         -0.4140    0.3590   -1.0440 c2        1 33Y      0.048000
     29 N7         -1.5730    0.3160   -1.7900 n2        1 33Y     -0.197000
     30 C4         -2.1400    1.5780   -1.7780 c1        1 33Y      0.004000
     31 C3         -3.3200    2.1020   -2.4030 c1        1 33Y     -0.127250
     32 C2         -3.6510    3.4400   -2.2510 c1        1 33Y     -0.127250
     33 H22         0.3630   -0.6500    6.9070 ha        1 33Y      0.163500
     34 H21         1.5410   -0.7650    4.8490 ha        1 33Y      0.163500
     35 H25        -1.9870   -1.8900    3.0250 ha        1 33Y      0.166000
     36 H113       -0.6420    0.7830    1.8400 h1        1 33Y      0.102000
     37 H213        0.7660    1.1380    2.6170 h1        1 33Y      0.102000
     38 H127        1.0670    3.8070    0.3990 hc        1 33Y      0.082000
     39 H227        1.6570    3.2820    1.8380 hc        1 33Y      0.082000
     40 H327       -0.0080    3.4680    1.5950 hc        1 33Y      0.082000
     41 H128        2.0830    0.7870   -0.8020 hc        1 33Y      0.082000
     42 H228        2.6150    0.6990    0.7270 hc        1 33Y      0.082000
     43 H328        2.7700    2.0980   -0.0560 hc        1 33Y      0.082000
     44 H6         -1.1110    4.3500   -0.3460 ha        1 33Y      0.130750
     45 H1         -3.0590    5.1820   -1.3850 ha        1 33Y      0.130750
     46 H11         2.5470   -0.8650    0.3660 h4        1 33Y      0.192000
     47 H29         2.5340   -2.9830   -3.3270 h1        1 33Y      0.114000
     48 H131        0.7730   -4.6420   -2.9700 hc        1 33Y      0.088333
     49 H231        0.2870   -4.3130   -4.4250 hc        1 33Y      0.088333
     50 H331        1.7370   -4.9750   -4.2270 hc        1 33Y      0.088333
     51 H130        0.9420   -1.8140   -5.3420 hc        1 33Y      0.088333
     52 H230        1.9230   -2.9880   -5.7670 hc        1 33Y      0.088333
     53 H330        2.5460   -1.6640   -5.1340 hc        1 33Y      0.088333
     54 HN7        -1.9050   -0.4320   -2.2480 DU        1 33Y      0.268000
     55 H3         -3.9060    1.5020   -2.9500 ha        1 33Y      0.130750
     56 H2         -4.4300    3.7820   -2.6630 ha        1 33Y      0.130750
@<TRIPOS>BOND
     1    1    2 1   
     2    2    7 1   
     3    3    5 1   
     4    5   33 1   
     5    6    8 1   
     6    6   34 1   
     7    7   35 1   
     8    9   10 1   
     9   11   12 1   
    10   11   20 1   
    11   12   13 1   
    12   12   36 1   
    13   12   37 1   
    14   13   14 1   
    15   13   15 1   
    16   13   16 1   
    17   14   38 1   
    18   14   39 1   
    19   14   40 1   
    20   15   41 1   
    21   15   42 1   
    22   15   43 1   
    23   16   17 1   
    24   16   28 1   
    25   17   30 1   
    26   18   19 1   
    27   18   44 1   
    28   19   45 1   
    29   20   21 1   
    30   20   46 1   
    31   21   28 1   
    32   22   27 1   
    33   23   24 1   
    34   24   25 1   
    35   24   26 1   
    36   24   47 1   
    37   25   48 1   
    38   25   49 1   
    39   25   50 1   
    40   26   51 1   
    41   26   52 1   
    42   26   53 1   
    43   28   29 1   
    44   29   30 1   
    45   31   32 1   
    46   31   55 1   
    47   32   56 1   
@<TRIPOS>SUBSTRUCTURE
     1 33Y         1 TEMP              0 ****  ****    0 ROOT
