@<TRIPOS>MOLECULE
33Y
   56    59     1     0     0
SMALL
bcc


@<TRIPOS>ATOM
      1 F32         1.7360    0.5090    1.9580 f         1 33Y     -0.115900
      2 C24         2.9650    0.7010    1.4320 ca        1 33Y      0.096900
      3 C23         4.0280    1.1660    2.2560 ca        1 33Y      0.119900
      4 F26         3.8090    1.4110    3.5650 f         1 33Y     -0.116900
      5 C22         5.3010    1.3710    1.6980 ca        1 33Y     -0.148000
      6 C21         5.5180    1.1220    0.3470 ca        1 33Y     -0.074000
      7 C25         3.2020    0.4420    0.0720 ca        1 33Y     -0.111000
      8 C20         4.4750    0.6520   -0.4590 ca        1 33Y     -0.141600
      9 C18         4.7260    0.4680   -1.9170 c         1 33Y      0.676700
     10 O19         5.0890    1.4230   -2.6210 o         1 33Y     -0.543100
     11 N12         4.5190   -0.8070   -2.5020 n         1 33Y     -0.359000
     12 C13         4.5580   -0.9010   -3.9480 c3        1 33Y      0.068000
     13 C14         5.6070   -1.8770   -4.5530 c3        1 33Y      0.016200
     14 C27         5.8770   -1.3840   -5.9710 c3        1 33Y     -0.088100
     15 C28         6.9240   -1.8380   -3.7870 c3        1 33Y     -0.088100
     16 C9          5.0180   -3.2360   -4.5180 cc        1 33Y     -0.128400
     17 C5          4.8540   -4.1950   -5.5940 ca        1 33Y     -0.075800
     18 C6          5.2090   -4.2530   -6.9450 ca        1 33Y     -0.090000
     19 C1          4.8890   -5.3780   -7.6910 ca        1 33Y     -0.159000
     20 C11         4.4150   -1.9210   -1.6990 c2        1 33Y      0.066600
     21 C10         4.3600   -3.2500   -2.0310 cf        1 33Y     -0.192200
     22 C15         4.2250   -4.1410   -0.8610 c         1 33Y      0.652300
     23 O17         4.5620   -5.4500   -1.0600 os        1 33Y     -0.447900
     24 C29         4.4440   -6.3550    0.0650 c3        1 33Y      0.151100
     25 C31         4.2670   -7.7290   -0.5530 c3        1 33Y     -0.109600
     26 C30         5.6950   -6.2660    0.9130 c3        1 33Y     -0.109600
     27 O16         3.8660   -3.8050    0.2760 o         1 33Y     -0.567000
     28 C8          4.4310   -3.7990   -3.3660 cd        1 33Y      0.011900
     29 N7          3.8430   -5.0370   -3.6950 na        1 33Y     -0.166400
     30 C4          4.1490   -5.3250   -5.0260 ca        1 33Y     -0.046200
     31 C3          3.8290   -6.4580   -5.7900 ca        1 33Y     -0.144000
     32 C2          4.2080   -6.4680   -7.1220 ca        1 33Y     -0.113000
     33 H22         6.1170    1.7360    2.3400 ha        1 33Y      0.163000
     34 H21         6.5110    1.3050   -0.0940 ha        1 33Y      0.159000
     35 H25         2.3750    0.0800   -0.5580 ha        1 33Y      0.168000
     36 H113        4.7510    0.1300   -4.3650 h1        1 33Y      0.078700
     37 H213        3.5350   -1.2300   -4.2940 h1        1 33Y      0.078700
     38 H127        6.1970   -0.3140   -5.9500 hc        1 33Y      0.042367
     39 H227        6.7020   -1.9790   -6.4310 hc        1 33Y      0.042367
     40 H327        4.9590   -1.4740   -6.5990 hc        1 33Y      0.042367
     41 H128        7.2660   -0.7820   -3.6670 hc        1 33Y      0.042367
     42 H228        7.7040   -2.4060   -4.3480 hc        1 33Y      0.042367
     43 H328        6.8160   -2.3050   -2.7790 hc        1 33Y      0.042367
     44 H6          5.7390   -3.4210   -7.4290 ha        1 33Y      0.134000
     45 H1          5.1720   -5.4230   -8.7530 ha        1 33Y      0.129000
     46 H11         4.3650   -1.6890   -0.6050 h4        1 33Y      0.177000
     47 H29         3.5390   -6.0680    0.6710 h1        1 33Y      0.073700
     48 H131        3.3650   -7.7450   -1.2090 hc        1 33Y      0.049200
     49 H231        4.1430   -8.4800    0.2620 hc        1 33Y      0.049200
     50 H331        5.1580   -7.9990   -1.1670 hc        1 33Y      0.049200
     51 H130        5.6360   -7.0090    1.7440 hc        1 33Y      0.049200
     52 H230        5.7860   -5.2400    1.3460 hc        1 33Y      0.049200
     53 H330        6.6020   -6.4790    0.2990 hc        1 33Y      0.049200
     54 HN7         3.6380   -5.7320   -3.0180 hn        1 33Y      0.303700
     55 H3          3.2940   -7.3070   -5.3430 ha        1 33Y      0.133000
     56 H2          3.9760   -7.3420   -7.7480 ha        1 33Y      0.130000
@<TRIPOS>BOND
     1    1    2 1   
     2    2    3 ar  
     3    2    7 ar  
     4    3    4 1   
     5    3    5 ar  
     6    5    6 ar  
     7    5   33 1   
     8    6    8 ar  
     9    6   34 1   
    10    7    8 ar  
    11    7   35 1   
    12    8    9 1   
    13    9   10 2   
    14    9   11 1   
    15   11   12 1   
    16   11   20 1   
    17   12   13 1   
    18   12   36 1   
    19   12   37 1   
    20   13   14 1   
    21   13   15 1   
    22   13   16 1   
    23   14   38 1   
    24   14   39 1   
    25   14   40 1   
    26   15   41 1   
    27   15   42 1   
    28   15   43 1   
    29   16   17 1   
    30   16   28 2   
    31   17   18 ar  
    32   17   30 ar  
    33   18   19 ar  
    34   18   44 1   
    35   19   32 ar  
    36   19   45 1   
    37   20   21 2   
    38   20   46 1   
    39   21   22 1   
    40   21   28 1   
    41   22   23 1   
    42   22   27 2   
    43   23   24 1   
    44   24   25 1   
    45   24   26 1   
    46   24   47 1   
    47   25   48 1   
    48   25   49 1   
    49   25   50 1   
    50   26   51 1   
    51   26   52 1   
    52   26   53 1   
    53   28   29 1   
    54   29   30 1   
    55   29   54 1   
    56   30   31 ar  
    57   31   32 ar  
    58   31   55 1   
    59   32   56 1   
@<TRIPOS>SUBSTRUCTURE
     1 33Y         1 TEMP              0 ****  ****    0 ROOT
