@<TRIPOS>MOLECULE
33Y
   56    59     1     0     0
SMALL
bcc


@<TRIPOS>ATOM
      1 F32         5.6610   -0.2850   -0.6640 f         1 33Y     -0.115900
      2 C24         4.9530   -0.3510    0.4850 ca        1 33Y      0.096900
      3 C23         5.4850    0.2050    1.6820 ca        1 33Y      0.119900
      4 F26         6.6950    0.8040    1.6680 f         1 33Y     -0.116900
      5 C22         4.7450    0.1230    2.8740 ca        1 33Y     -0.148000
      6 C21         3.5020   -0.4990    2.8810 ca        1 33Y     -0.075000
      7 C25         3.6920   -0.9670    0.5050 ca        1 33Y     -0.111000
      8 C20         2.9750   -1.0340    1.7000 ca        1 33Y     -0.141600
      9 C18         1.6750   -1.7600    1.7620 c         1 33Y      0.676700
     10 O19         1.5410   -2.7560    2.4910 o         1 33Y     -0.543100
     11 N12         0.5940   -1.3190    0.9580 n         1 33Y     -0.359000
     12 C13        -0.5790   -2.1680    0.8760 c3        1 33Y      0.068000
     13 C14        -1.9270   -1.5340    1.3220 c3        1 33Y      0.016200
     14 C27        -2.8310   -2.6970    1.7190 c3        1 33Y     -0.088100
     15 C28        -1.7560   -0.6390    2.5440 c3        1 33Y     -0.088100
     16 C9         -2.4540   -0.7610    0.1730 cc        1 33Y     -0.128400
     17 C5         -3.7520   -0.8390   -0.4690 ca        1 33Y     -0.075800
     18 C6         -4.9370   -1.5480   -0.2480 ca        1 33Y     -0.090000
     19 C1         -6.0220   -1.3490   -1.0900 ca        1 33Y     -0.159000
     20 C11         0.6300   -0.0650    0.3890 c2        1 33Y      0.066600
     21 C10        -0.3390    0.6260   -0.2930 cf        1 33Y     -0.192200
     22 C15         0.1130    1.9500   -0.7690 c         1 33Y      0.652300
     23 O17        -0.8730    2.8420   -1.0860 os        1 33Y     -0.447900
     24 C29        -0.4700    4.1510   -1.5550 c3        1 33Y      0.151100
     25 C31        -1.6420    4.6520   -2.3770 c3        1 33Y     -0.109600
     26 C30        -0.1820    5.0440   -0.3660 c3        1 33Y     -0.109600
     27 O16         1.2880    2.3270   -0.8760 o         1 33Y     -0.567000
     28 C8         -1.6870    0.1750   -0.5500 cd        1 33Y      0.011900
     29 N7         -2.4260    0.6320   -1.6600 na        1 33Y     -0.166400
     30 C4         -3.7060    0.0790   -1.5880 ca        1 33Y     -0.046200
     31 C3         -4.8100    0.2710   -2.4340 ca        1 33Y     -0.144000
     32 C2         -5.9610   -0.4510   -2.1680 ca        1 33Y     -0.113000
     33 H22         5.1650    0.5510    3.7970 ha        1 33Y      0.163000
     34 H21         2.9340   -0.5820    3.8210 ha        1 33Y      0.159000
     35 H25         3.2860   -1.3920   -0.4270 ha        1 33Y      0.168000
     36 H113       -0.6850   -2.4950   -0.1980 h1        1 33Y      0.078700
     37 H213       -0.3940   -3.0870    1.5050 h1        1 33Y      0.078700
     38 H127       -2.3320   -3.3220    2.4990 hc        1 33Y      0.042367
     39 H227       -3.7850   -2.3090    2.1510 hc        1 33Y      0.042367
     40 H327       -3.0580   -3.3380    0.8340 hc        1 33Y      0.042367
     41 H128       -1.2060    0.2960    2.2820 hc        1 33Y      0.042367
     42 H228       -2.7580   -0.3490    2.9430 hc        1 33Y      0.042367
     43 H328       -1.1950   -1.1830    3.3410 hc        1 33Y      0.042367
     44 H6         -5.0240   -2.2620    0.5820 ha        1 33Y      0.134000
     45 H1         -6.9540   -1.9060   -0.9120 ha        1 33Y      0.129000
     46 H11         1.6120    0.4580    0.5050 h4        1 33Y      0.176000
     47 H29         0.4510    4.0430   -2.1940 h1        1 33Y      0.073700
     48 H131       -2.5560    4.7400   -1.7430 hc        1 33Y      0.049200
     49 H231       -1.3900    5.6550   -2.7960 hc        1 33Y      0.049200
     50 H331       -1.8570    3.9470   -3.2150 hc        1 33Y      0.049200
     51 H130       -1.0690    5.0960    0.3090 hc        1 33Y      0.049200
     52 H230        0.6850    4.6390    0.2090 hc        1 33Y      0.049200
     53 H330        0.0650    6.0720   -0.7220 hc        1 33Y      0.049200
     54 HN7        -2.2220    1.4800   -2.1300 hn        1 33Y      0.303700
     55 H3         -4.7580    0.9710   -3.2780 ha        1 33Y      0.133000
     56 H2         -6.8460   -0.3210   -2.8100 ha        1 33Y      0.130000
@<TRIPOS>BOND
     1    1    2 1   
     2    2    3 ar  
     3    2    7 ar  
     4    3    4 1   
     5    3    5 ar  
     6    5    6 ar  
     7    5   33 1   
     8    6    8 ar  
     9    6   34 1   
    10    7    8 ar  
    11    7   35 1   
    12    8    9 1   
    13    9   10 2   
    14    9   11 1   
    15   11   12 1   
    16   11   20 1   
    17   12   13 1   
    18   12   36 1   
    19   12   37 1   
    20   13   14 1   
    21   13   15 1   
    22   13   16 1   
    23   14   38 1   
    24   14   39 1   
    25   14   40 1   
    26   15   41 1   
    27   15   42 1   
    28   15   43 1   
    29   16   17 1   
    30   16   28 2   
    31   17   18 ar  
    32   17   30 ar  
    33   18   19 ar  
    34   18   44 1   
    35   19   32 ar  
    36   19   45 1   
    37   20   21 2   
    38   20   46 1   
    39   21   22 1   
    40   21   28 1   
    41   22   23 1   
    42   22   27 2   
    43   23   24 1   
    44   24   25 1   
    45   24   26 1   
    46   24   47 1   
    47   25   48 1   
    48   25   49 1   
    49   25   50 1   
    50   26   51 1   
    51   26   52 1   
    52   26   53 1   
    53   28   29 1   
    54   29   30 1   
    55   29   54 1   
    56   30   31 ar  
    57   31   32 ar  
    58   31   55 1   
    59   32   56 1   
@<TRIPOS>SUBSTRUCTURE
     1 33Y         1 TEMP              0 ****  ****    0 ROOT
