@<TRIPOS>MOLECULE
33Y
   56    59     1     0     0
SMALL
bcc


@<TRIPOS>ATOM
      1 F32         1.6120    0.4090    1.9510 f         1 33Y     -0.115900
      2 C24         2.8440    0.6280    1.4430 ca        1 33Y      0.096900
      3 C23         3.8880    1.1050    2.2840 ca        1 33Y      0.119900
      4 F26         3.6490    1.3330    3.5930 f         1 33Y     -0.116900
      5 C22         5.1630    1.3390    1.7430 ca        1 33Y     -0.148000
      6 C21         5.4010    1.1070    0.3930 ca        1 33Y     -0.075000
      7 C25         3.1020    0.3880    0.0840 ca        1 33Y     -0.111000
      8 C20         4.3770    0.6260   -0.4300 ca        1 33Y     -0.141600
      9 C18         4.6480    0.4610   -1.8870 c         1 33Y      0.676700
     10 O19         5.0010    1.4300   -2.5770 o         1 33Y     -0.543100
     11 N12         4.4740   -0.8120   -2.4860 n         1 33Y     -0.359000
     12 C13         4.5330   -0.8920   -3.9320 c3        1 33Y      0.068000
     13 C14         5.6100   -1.8400   -4.5320 c3        1 33Y      0.016200
     14 C27         5.8880   -1.3290   -5.9420 c3        1 33Y     -0.088100
     15 C28         6.9160   -1.7820   -3.7480 c3        1 33Y     -0.088100
     16 C9          5.0490   -3.2120   -4.5170 cc        1 33Y     -0.128400
     17 C5          4.9190   -4.1640   -5.6040 ca        1 33Y     -0.075800
     18 C6          5.2940   -4.2020   -6.9510 ca        1 33Y     -0.090000
     19 C1          5.0070   -5.3270   -7.7100 ca        1 33Y     -0.159000
     20 C11         4.3820   -1.9360   -1.6940 c2        1 33Y      0.066600
     21 C10         4.3580   -3.2630   -2.0400 cf        1 33Y     -0.192200
     22 C15         4.2250   -4.1670   -0.8790 c         1 33Y      0.652300
     23 O17         4.5930   -5.4670   -1.0860 os        1 33Y     -0.447900
     24 C29         4.4780   -6.3840    0.0290 c3        1 33Y      0.151100
     25 C31         4.3400   -7.7550   -0.6030 c3        1 33Y     -0.109600
     26 C30         5.7140   -6.2760    0.8970 c3        1 33Y     -0.109600
     27 O16         3.8430   -3.8490    0.2550 o         1 33Y     -0.567000
     28 C8          4.4590   -3.7970   -3.3790 cd        1 33Y      0.011900
     29 N7          3.9010   -5.0450   -3.7260 na        1 33Y     -0.166400
     30 C4          4.2310   -5.3130   -5.0560 ca        1 33Y     -0.046200
     31 C3          3.9440   -6.4460   -5.8340 ca        1 33Y     -0.144000
     32 C2          4.3420   -6.4360   -7.1610 ca        1 33Y     -0.113000
     33 H22         5.9650    1.7120    2.3990 ha        1 33Y      0.163000
     34 H21         6.3960    1.3120   -0.0340 ha        1 33Y      0.159000
     35 H25         2.2890    0.0170   -0.5600 ha        1 33Y      0.168000
     36 H113        3.5220   -1.2390   -4.2940 h1        1 33Y      0.078700
     37 H213        4.7100    0.1470   -4.3370 h1        1 33Y      0.078700
     38 H127        6.7310   -1.9020   -6.3970 hc        1 33Y      0.042367
     39 H227        6.1860   -0.2530   -5.9070 hc        1 33Y      0.042367
     40 H327        4.9800   -1.4320   -6.5830 hc        1 33Y      0.042367
     41 H128        7.7150   -2.3290   -4.3050 hc        1 33Y      0.042367
     42 H228        6.8050   -2.2610   -2.7470 hc        1 33Y      0.042367
     43 H328        7.2340   -0.7200   -3.6150 hc        1 33Y      0.042367
     44 H6          5.8120   -3.3540   -7.4200 ha        1 33Y      0.134000
     45 H1          5.3050   -5.3560   -8.7690 ha        1 33Y      0.129000
     46 H11         4.3120   -1.7150   -0.5990 h4        1 33Y      0.176000
     47 H29         3.5590   -6.1220    0.6240 h1        1 33Y      0.073700
     48 H131        3.4480   -7.7850   -1.2730 hc        1 33Y      0.049200
     49 H231        4.2190   -8.5170    0.2040 hc        1 33Y      0.049200
     50 H331        5.2460   -8.0020   -1.2060 hc        1 33Y      0.049200
     51 H130        5.6590   -7.0280    1.7200 hc        1 33Y      0.049200
     52 H230        5.7760   -5.2530    1.3410 hc        1 33Y      0.049200
     53 H330        6.6350   -6.4630    0.2940 hc        1 33Y      0.049200
     54 HN7         3.7020   -5.7500   -3.0580 hn        1 33Y      0.303700
     55 H3          3.4220   -7.3100   -5.4020 ha        1 33Y      0.133000
     56 H2          4.1360   -7.3090   -7.7980 ha        1 33Y      0.130000
@<TRIPOS>BOND
     1    1    2 1   
     2    2    3 ar  
     3    2    7 ar  
     4    3    4 1   
     5    3    5 ar  
     6    5    6 ar  
     7    5   33 1   
     8    6    8 ar  
     9    6   34 1   
    10    7    8 ar  
    11    7   35 1   
    12    8    9 1   
    13    9   10 2   
    14    9   11 1   
    15   11   12 1   
    16   11   20 1   
    17   12   13 1   
    18   12   36 1   
    19   12   37 1   
    20   13   14 1   
    21   13   15 1   
    22   13   16 1   
    23   14   38 1   
    24   14   39 1   
    25   14   40 1   
    26   15   41 1   
    27   15   42 1   
    28   15   43 1   
    29   16   17 1   
    30   16   28 2   
    31   17   18 ar  
    32   17   30 ar  
    33   18   19 ar  
    34   18   44 1   
    35   19   32 ar  
    36   19   45 1   
    37   20   21 2   
    38   20   46 1   
    39   21   22 1   
    40   21   28 1   
    41   22   23 1   
    42   22   27 2   
    43   23   24 1   
    44   24   25 1   
    45   24   26 1   
    46   24   47 1   
    47   25   48 1   
    48   25   49 1   
    49   25   50 1   
    50   26   51 1   
    51   26   52 1   
    52   26   53 1   
    53   28   29 1   
    54   29   30 1   
    55   29   54 1   
    56   30   31 ar  
    57   31   32 ar  
    58   31   55 1   
    59   32   56 1   
@<TRIPOS>SUBSTRUCTURE
     1 33Y         1 TEMP              0 ****  ****    0 ROOT
