@<TRIPOS>MOLECULE
33Y
   56    59     1     0     0
SMALL
bcc


@<TRIPOS>ATOM
      1 F32         1.5870    0.4080    1.9410 f         1 33Y     -0.115900
      2 C24         2.8180    0.6320    1.4340 ca        1 33Y      0.096900
      3 C23         3.8580    1.1150    2.2750 ca        1 33Y      0.119900
      4 F26         3.6160    1.3460    3.5830 f         1 33Y     -0.116900
      5 C22         5.1340    1.3540    1.7360 ca        1 33Y     -0.148000
      6 C21         5.3750    1.1190    0.3870 ca        1 33Y     -0.074000
      7 C25         3.0800    0.3880    0.0760 ca        1 33Y     -0.111000
      8 C20         4.3550    0.6310   -0.4360 ca        1 33Y     -0.141600
      9 C18         4.6290    0.4630   -1.8920 c         1 33Y      0.676700
     10 O19         4.9790    1.4320   -2.5840 o         1 33Y     -0.543100
     11 N12         4.4610   -0.8120   -2.4880 n         1 33Y     -0.359000
     12 C13         4.5210   -0.8950   -3.9340 c3        1 33Y      0.068000
     13 C14         5.6010   -1.8420   -4.5310 c3        1 33Y      0.016200
     14 C27         5.8780   -1.3340   -5.9420 c3        1 33Y     -0.088100
     15 C28         6.9070   -1.7780   -3.7470 c3        1 33Y     -0.088100
     16 C9          5.0440   -3.2150   -4.5130 cc        1 33Y     -0.128400
     17 C5          4.9170   -4.1710   -5.5970 ca        1 33Y     -0.075800
     18 C6          5.2920   -4.2110   -6.9440 ca        1 33Y     -0.090000
     19 C1          5.0080   -5.3380   -7.7010 ca        1 33Y     -0.159000
     20 C11         4.3720   -1.9340   -1.6930 c2        1 33Y      0.066600
     21 C10         4.3530   -3.2620   -2.0360 cf        1 33Y     -0.192200
     22 C15         4.2230   -4.1640   -0.8730 c         1 33Y      0.652300
     23 O17         4.5940   -5.4630   -1.0760 os        1 33Y     -0.447900
     24 C29         4.4830   -6.3770    0.0420 c3        1 33Y      0.151100
     25 C31         4.3480   -7.7510   -0.5870 c3        1 33Y     -0.109600
     26 C30         5.7190   -6.2640    0.9090 c3        1 33Y     -0.109600
     27 O16         3.8400   -3.8440    0.2610 o         1 33Y     -0.567000
     28 C8          4.4560   -3.8000   -3.3730 cd        1 33Y      0.011900
     29 N7          3.9010   -5.0500   -3.7170 na        1 33Y     -0.166400
     30 C4          4.2320   -5.3200   -5.0460 ca        1 33Y     -0.046200
     31 C3          3.9490   -6.4560   -5.8220 ca        1 33Y     -0.144000
     32 C2          4.3470   -6.4470   -7.1490 ca        1 33Y     -0.113000
     33 H22         5.9330    1.7330    2.3920 ha        1 33Y      0.163000
     34 H21         6.3700    1.3280   -0.0390 ha        1 33Y      0.159000
     35 H25         2.2690    0.0110   -0.5680 ha        1 33Y      0.168000
     36 H113        3.5110   -1.2460   -4.2960 h1        1 33Y      0.078700
     37 H213        4.6960    0.1430   -4.3410 h1        1 33Y      0.078700
     38 H127        6.7230   -1.9060   -6.3950 hc        1 33Y      0.042367
     39 H227        4.9710   -1.4400   -6.5830 hc        1 33Y      0.042367
     40 H327        6.1730   -0.2560   -5.9100 hc        1 33Y      0.042367
     41 H128        7.7080   -2.3240   -4.3010 hc        1 33Y      0.042367
     42 H228        6.7960   -2.2540   -2.7440 hc        1 33Y      0.042367
     43 H328        7.2210   -0.7150   -3.6150 hc        1 33Y      0.042367
     44 H6          5.8080   -3.3630   -7.4150 ha        1 33Y      0.134000
     45 H1          5.3070   -5.3690   -8.7590 ha        1 33Y      0.129000
     46 H11         4.3020   -1.7110   -0.5990 h4        1 33Y      0.176000
     47 H29         3.5630   -6.1170    0.6360 h1        1 33Y      0.073700
     48 H131        5.2550   -7.9960   -1.1900 hc        1 33Y      0.049200
     49 H231        3.4560   -7.7850   -1.2560 hc        1 33Y      0.049200
     50 H331        4.2310   -8.5110    0.2220 hc        1 33Y      0.049200
     51 H130        5.6670   -7.0130    1.7340 hc        1 33Y      0.049200
     52 H230        6.6400   -6.4500    0.3060 hc        1 33Y      0.049200
     53 H330        5.7780   -5.2390    1.3490 hc        1 33Y      0.049200
     54 HN7         3.7040   -5.7530   -3.0480 hn        1 33Y      0.303700
     55 H3          3.4290   -7.3200   -5.3880 ha        1 33Y      0.133000
     56 H2          4.1430   -7.3230   -7.7830 ha        1 33Y      0.130000
@<TRIPOS>BOND
     1    1    2 1   
     2    2    3 ar  
     3    2    7 ar  
     4    3    4 1   
     5    3    5 ar  
     6    5    6 ar  
     7    5   33 1   
     8    6    8 ar  
     9    6   34 1   
    10    7    8 ar  
    11    7   35 1   
    12    8    9 1   
    13    9   10 2   
    14    9   11 1   
    15   11   12 1   
    16   11   20 1   
    17   12   13 1   
    18   12   36 1   
    19   12   37 1   
    20   13   14 1   
    21   13   15 1   
    22   13   16 1   
    23   14   38 1   
    24   14   39 1   
    25   14   40 1   
    26   15   41 1   
    27   15   42 1   
    28   15   43 1   
    29   16   17 1   
    30   16   28 2   
    31   17   18 ar  
    32   17   30 ar  
    33   18   19 ar  
    34   18   44 1   
    35   19   32 ar  
    36   19   45 1   
    37   20   21 2   
    38   20   46 1   
    39   21   22 1   
    40   21   28 1   
    41   22   23 1   
    42   22   27 2   
    43   23   24 1   
    44   24   25 1   
    45   24   26 1   
    46   24   47 1   
    47   25   48 1   
    48   25   49 1   
    49   25   50 1   
    50   26   51 1   
    51   26   52 1   
    52   26   53 1   
    53   28   29 1   
    54   29   30 1   
    55   29   54 1   
    56   30   31 ar  
    57   31   32 ar  
    58   31   55 1   
    59   32   56 1   
@<TRIPOS>SUBSTRUCTURE
     1 33Y         1 TEMP              0 ****  ****    0 ROOT
