@<TRIPOS>MOLECULE
33Z
   83    85     1     0     0
SMALL
bcc


@<TRIPOS>ATOM
      1 C49        -1.0140    1.6990    1.5910 ca        1 33Z     -0.090000
      2 C50         0.3330    1.9950    1.7880 ca        1 33Z     -0.130500
      3 C51         0.9580    1.6470    2.9870 ca        1 33Z     -0.089000
      4 C52         0.2350    1.0010    3.9910 ca        1 33Z     -0.130500
      5 C53        -1.1130    0.7040    3.8000 ca        1 33Z     -0.090000
      6 C48        -1.7430    1.0570    2.6000 ca        1 33Z     -0.143300
      7 C47        -3.1880    0.7820    2.4120 c3        1 33Z      0.213700
      8 O46        -3.2520   -0.5880    1.8710 os        1 33Z     -0.407900
      9 C44        -4.4870   -1.0480    1.6040 c         1 33Z      0.618100
     10 O45        -5.5250   -0.4120    1.7430 o         1 33Z     -0.441000
     11 N43        -4.4140   -2.4500    1.1030 ny        1 33Z     -0.632800
     12 C34        -5.7610   -3.0950    0.9030 c3        1 33Z      0.048500
     13 C35        -5.8770   -3.7740   -0.4750 c3        1 33Z     -0.069100
     14 C36        -5.2600   -2.9780   -1.5680 ca        1 33Z     -0.153300
     15 C37        -4.0230   -3.3640   -2.1020 ca        1 33Z     -0.129000
     16 C38        -3.4610   -2.6450   -3.1550 ca        1 33Z     -0.121000
     17 C41        -4.1280   -1.5400   -3.6840 ca        1 33Z     -0.105000
     18 C40        -5.3640   -1.1570   -3.1610 ca        1 33Z     -0.121000
     19 C39        -5.9300   -1.8730   -2.1080 ca        1 33Z     -0.129000
     20 C32        -5.9820   -4.1670    2.0080 c         1 33Z      0.664100
     21 O33        -5.0770   -4.3730    2.8480 o         1 33Z     -0.624100
     22 N31        -7.1550   -4.8540    1.9550 ns        1 33Z     -0.488900
     23 C27        -7.3360   -6.1410    2.5880 c3        1 33Z     -0.187500
     24 C28        -8.6100   -6.2720    3.4410 c3        1 33Z     -0.080700
     25 C30        -8.2670   -6.2170    4.9170 c3        1 33Z     -0.091600
     26 C29        -9.6900   -5.2520    3.1390 c3        1 33Z     -0.091600
     27 P24        -7.3070   -7.3290    1.3580 p5        1 33Z      1.481100
     28 O25        -6.2920   -6.9910    0.3560 o         1 33Z     -0.867300
     29 O26        -8.7570   -7.2230    0.6970 oh        1 33Z     -0.802400
     30 C23        -7.1500   -8.7680    2.1300 c3        1 33Z     -0.434600
     31 C1         -7.8180   -9.8970    1.3750 c3        1 33Z     -0.139400
     32 C2         -9.3080  -10.1580    1.8120 c         1 33Z      0.947600
     33 O14        -9.8520  -11.2330    1.4190 o         1 33Z     -0.844800
     34 O13        -9.9080   -9.2820    2.4820 o         1 33Z     -0.844800
     35 C3         -7.1070  -11.2060    1.4740 ca        1 33Z     -0.019300
     36 C8         -7.5130  -12.1960    0.5670 ca        1 33Z     -0.143000
     37 C4         -6.1890  -11.5410    2.4730 ca        1 33Z     -0.109000
     38 C5         -5.7110  -12.8480    2.5780 ca        1 33Z     -0.117000
     39 C6         -6.1940  -13.8590    1.7520 ca        1 33Z     -0.108000
     40 C7         -7.1400  -13.5370    0.7580 ca        1 33Z      0.029600
     41 N9         -7.7350  -14.5850   -0.0020 nu        1 33Z     -0.716600
     42 C10        -9.1400  -14.6480   -0.1560 c2        1 33Z      0.720100
     43 N12        -9.8390  -15.4410   -0.9080 n2        1 33Z     -0.808100
     44 N11        -9.9670  -13.7610    0.7400 nz        1 33Z     -0.810600
     45 H49        -1.5060    1.9770    0.6470 ha        1 33Z      0.137500
     46 H50         0.9040    2.5070    0.9980 ha        1 33Z      0.149500
     47 H51         2.0230    1.8840    3.1410 ha        1 33Z      0.150000
     48 H52         0.7280    0.7290    4.9370 ha        1 33Z      0.149500
     49 H53        -1.6830    0.1970    4.5930 ha        1 33Z      0.137500
     50 H471       -3.6700    1.4600    1.6610 h1        1 33Z      0.080700
     51 H472       -3.7640    0.7850    3.3740 h1        1 33Z      0.080700
     52 HN43       -3.8740   -3.0070    1.7990 hn        1 33Z      0.493800
     53 H34        -6.5480   -2.2850    0.9960 hx        1 33Z      0.136700
     54 H351       -6.9760   -3.9030   -0.6850 hc        1 33Z      0.120200
     55 H352       -5.4380   -4.8150   -0.4340 hc        1 33Z      0.120200
     56 H37        -3.5140   -4.2630   -1.7180 ha        1 33Z      0.143500
     57 H38        -2.4950   -2.9600   -3.5800 ha        1 33Z      0.151000
     58 H41        -3.6870   -0.9790   -4.5230 ha        1 33Z      0.152000
     59 H40        -5.9010   -0.2950   -3.5890 ha        1 33Z      0.151000
     60 H39        -6.9160   -1.5820   -1.7140 ha        1 33Z      0.143500
     61 HN31       -9.4850   -7.7270    1.0760 ho        1 33Z      0.510000
     62 H27        -6.4570   -6.2900    3.2890 h1        1 33Z      0.124700
     63 H28        -9.0540   -7.2950    3.2270 hc        1 33Z      0.091700
     64 H301       -7.5570   -7.0370    5.1870 hc        1 33Z      0.043533
     65 H302       -9.1940   -6.3420    5.5280 hc        1 33Z      0.043533
     66 H303       -7.7980   -5.2390    5.1770 hc        1 33Z      0.043533
     67 H291       -9.9830   -5.2760    2.0610 hc        1 33Z      0.043533
     68 H292       -9.3620   -4.2200    3.4090 hc        1 33Z      0.043533
     69 H293      -10.5980   -5.4950    3.7450 hc        1 33Z      0.043533
     70 H231       -6.0560   -9.0020    2.2460 hc        1 33Z      0.121200
     71 H232       -7.5700   -8.7760    3.1750 hc        1 33Z      0.121200
     72 H1         -7.8760   -9.6020    0.2860 hc        1 33Z      0.066700
     73 H8         -8.1870  -11.9030   -0.2560 ha        1 33Z      0.146000
     74 H4         -5.8530  -10.7890    3.2030 ha        1 33Z      0.145000
     75 H5         -4.9630  -13.0940    3.3490 ha        1 33Z      0.149000
     76 H6         -5.8490  -14.8950    1.8870 ha        1 33Z      0.152000
     77 HN9        -7.2130  -14.8670   -0.8090 hn        1 33Z      0.448800
     78 HN12       -9.3510  -16.0570   -1.5210 hn        1 33Z      0.454400
     79 H111       -9.4280  -13.3990    1.5480 hn        1 33Z      0.492467
     80 H112      -10.7970  -14.2590    1.0700 hn        1 33Z      0.492467
     81 H432       -3.8940   -2.4470    0.2080 hn        1 33Z      0.493800
     82 H312       -7.8620   -4.6000    1.3010 hn        1 33Z      0.336500
     83 H113      -10.2610  -12.9150    0.2140 hn        1 33Z      0.492467
@<TRIPOS>BOND
     1    1    2 ar  
     2    1    6 ar  
     3    1   45 1   
     4    2    3 ar  
     5    2   46 1   
     6    3    4 ar  
     7    3   47 1   
     8    4    5 ar  
     9    4   48 1   
    10    5    6 ar  
    11    5   49 1   
    12    6    7 1   
    13    7    8 1   
    14    7   50 1   
    15    7   51 1   
    16    8    9 1   
    17    9   10 2   
    18    9   11 1   
    19   11   12 1   
    20   11   52 1   
    21   11   81 1   
    22   12   13 1   
    23   12   20 1   
    24   12   53 1   
    25   13   14 1   
    26   13   54 1   
    27   13   55 1   
    28   14   15 ar  
    29   14   19 ar  
    30   15   16 ar  
    31   15   56 1   
    32   16   17 ar  
    33   16   57 1   
    34   17   18 ar  
    35   17   58 1   
    36   18   19 ar  
    37   18   59 1   
    38   19   60 1   
    39   20   21 2   
    40   20   22 1   
    41   22   23 1   
    42   22   82 1   
    43   23   24 1   
    44   23   27 1   
    45   23   62 1   
    46   24   25 1   
    47   24   26 1   
    48   24   63 1   
    49   25   64 1   
    50   25   65 1   
    51   25   66 1   
    52   26   67 1   
    53   26   68 1   
    54   26   69 1   
    55   27   28 2   
    56   27   29 1   
    57   27   30 1   
    58   29   61 1   
    59   30   31 1   
    60   30   70 1   
    61   30   71 1   
    62   31   32 1   
    63   31   35 1   
    64   31   72 1   
    65   32   33 1   
    66   32   34 1   
    67   35   36 ar  
    68   35   37 ar  
    69   36   40 ar  
    70   36   73 1   
    71   37   38 ar  
    72   37   74 1   
    73   38   39 ar  
    74   38   75 1   
    75   39   40 ar  
    76   39   76 1   
    77   40   41 1   
    78   41   42 1   
    79   41   77 1   
    80   42   43 2   
    81   42   44 1   
    82   43   78 1   
    83   44   79 1   
    84   44   80 1   
    85   44   83 1   
@<TRIPOS>SUBSTRUCTURE
     1 33Z         1 TEMP              0 ****  ****    0 ROOT
