@<TRIPOS>MOLECULE
33Z
   85    87     1     0     0
SMALL
bcc


@<TRIPOS>ATOM
      1 C49         1.2170   -0.0720   -2.3850 ca        1 33Z     -0.091000
      2 C50         0.4270    0.4470    0.2440 ca        1 33Z     -0.129000
      3 C51         0.4800   -0.8670   -0.2250 ca        1 33Z     -0.074000
      4 C52         0.8720   -1.1250   -1.5400 ca        1 33Z     -0.129000
      5 C53         0.7730    1.5030   -0.5960 ca        1 33Z     -0.091000
      6 C48         1.1710    1.2480   -1.9160 ca        1 33Z     -0.199300
      7 C47         1.6150    2.3580   -2.7830 c3        1 33Z      0.220700
      8 O46         0.4550    3.0660   -3.3740 os        1 33Z     -0.404900
      9 C44        -0.1320    2.4950   -4.4290 c         1 33Z      0.627100
     10 O45         0.2580    1.5440   -5.0910 o         1 33Z     -0.428000
     11 N43        -1.4120    3.2240   -4.7610 n4        1 33Z     -0.656800
     12 C34        -2.0830    2.7000   -5.9960 c3        1 33Z      0.085500
     13 C35        -3.6150    2.7500   -5.8590 c3        1 33Z     -0.055100
     14 C36        -4.0550    1.9220   -4.7030 ca        1 33Z     -0.184300
     15 C37        -4.4220    2.5380   -3.4990 ca        1 33Z     -0.125500
     16 C38        -4.8790    1.7670   -2.4330 ca        1 33Z     -0.106000
     17 C41        -4.9760    0.3790   -2.5620 ca        1 33Z     -0.078000
     18 C40        -4.6150   -0.2360   -3.7620 ca        1 33Z     -0.106000
     19 C39        -4.1570    0.5320   -4.8320 ca        1 33Z     -0.125500
     20 C32        -1.5160    3.3950   -7.2390 c         1 33Z      0.540100
     21 O33        -0.3540    3.3100   -7.5990 o         1 33Z     -0.369100
     22 N31        -2.4380    4.2300   -8.0960 n4        1 33Z     -0.620800
     23 C27        -1.9170    5.5860   -8.4240 c3        1 33Z     -0.168700
     24 C28        -2.5550    6.1880   -9.6910 c3        1 33Z     -0.099700
     25 C30        -3.8820    5.5780  -10.1020 c3        1 33Z     -0.116100
     26 C29        -1.5840    6.1100  -10.8530 c3        1 33Z     -0.116100
     27 P24        -2.1530    6.6530   -7.0840 p5        1 33Z      1.554100
     28 O25        -1.7480    5.8170   -5.9390 o         1 33Z     -0.923300
     29 O26        -3.7310    6.7810   -7.0680 oh        1 33Z     -0.818400
     30 C23        -1.4060    8.0630   -7.3780 c3        1 33Z     -0.468600
     31 C1         -2.1510    9.2720   -6.8440 c3        1 33Z     -0.159400
     32 C2         -3.2910    9.8390   -7.8060 c         1 33Z      0.945600
     33 O14        -3.8050   10.9400   -7.4610 o         1 33Z     -0.802800
     34 O13        -3.6390    9.1530   -8.7930 o         1 33Z     -0.802800
     35 C3         -1.2820   10.4550   -6.5610 ca        1 33Z     -0.029300
     36 C8         -1.9230   11.5400   -5.9310 ca        1 33Z     -0.057000
     37 C4          0.0220   10.6240   -7.0320 ca        1 33Z     -0.062000
     38 C5          0.6670   11.8630   -6.9250 ca        1 33Z     -0.090000
     39 C6          0.0000   12.9760   -6.4270 ca        1 33Z     -0.101000
     40 C7         -1.3170   12.8050   -5.9560 ca        1 33Z     -0.108400
     41 N9         -2.1000   13.9660   -5.5120 n4        1 33Z     -0.622400
     42 C10        -3.0060   14.4430   -6.6380 c2        1 33Z      0.576100
     43 N12        -3.5160   13.7800   -7.5860 n2        1 33Z     -0.589100
     44 N11        -3.3190   15.9190   -6.5780 n4        1 33Z     -0.824600
     45 H49         1.5390   -0.2770   -3.4190 ha        1 33Z      0.141000
     46 H50         0.1280    0.6480    1.2850 ha        1 33Z      0.158500
     47 H51         0.2220   -1.7030    0.4460 ha        1 33Z      0.162000
     48 H52         0.9250   -2.1630   -1.9060 ha        1 33Z      0.158500
     49 H53         0.7500    2.5370   -0.2180 ha        1 33Z      0.141000
     50 H471        2.2780    2.0200   -3.6220 h1        1 33Z      0.103200
     51 H472        2.0720    3.2100   -2.2050 h1        1 33Z      0.103200
     52 HN43       -2.0630    3.0910   -3.9630 hn        1 33Z      0.512300
     53 H34        -1.7820    1.5990   -6.1110 hx        1 33Z      0.178700
     54 H351       -3.9720    3.8080   -5.7210 hc        1 33Z      0.087700
     55 H352       -4.0610    2.3300   -6.8030 hc        1 33Z      0.087700
     56 H37        -4.3920    3.6350   -3.4020 ha        1 33Z      0.136500
     57 H38        -5.1800    2.2540   -1.4900 ha        1 33Z      0.166500
     58 H41        -5.3500   -0.2280   -1.7200 ha        1 33Z      0.172000
     59 H40        -4.7040   -1.3310   -3.8690 ha        1 33Z      0.166500
     60 H39        -3.8940    0.0400   -5.7810 ha        1 33Z      0.136500
     61 HN31       -3.3500    4.3600   -7.6330 hn        1 33Z      0.477300
     62 H27        -0.8100    5.4610   -8.6360 hx        1 33Z      0.150700
     63 H28        -2.7610    7.2840   -9.4750 hc        1 33Z      0.114700
     64 H301       -4.3290    6.2170  -10.9090 hc        1 33Z      0.064200
     65 H302       -4.6140    5.5550   -9.2580 hc        1 33Z      0.064200
     66 H303       -3.7600    4.5530  -10.5300 hc        1 33Z      0.064200
     67 H291       -1.3390    5.0490  -11.1000 hc        1 33Z      0.064200
     68 H292       -0.6360    6.6530  -10.6190 hc        1 33Z      0.064200
     69 H293       -2.0420    6.5830  -11.7590 hc        1 33Z      0.064200
     70 HO26       -4.1900    7.4830   -7.5510 ho        1 33Z      0.541000
     71 H231       -0.3780    8.0540   -6.9120 hc        1 33Z      0.141700
     72 H232       -1.2240    8.2690   -8.4740 hc        1 33Z      0.141700
     73 H1         -2.6850    8.9670   -5.8990 hc        1 33Z      0.074700
     74 H8         -2.9280   11.3820   -5.4930 ha        1 33Z      0.188000
     75 H4          0.5590    9.7950   -7.5220 ha        1 33Z      0.165000
     76 H5          1.7100   11.9680   -7.2740 ha        1 33Z      0.188000
     77 H6          0.5080   13.9530   -6.4090 ha        1 33Z      0.161000
     78 HN9        -2.6970   13.6820   -4.7180 hn        1 33Z      0.475300
     79 HN12       -3.4270   12.7730   -7.7650 hn        1 33Z      0.603400
     80 H111       -3.7760   16.1600   -5.6890 hn        1 33Z      0.499467
     81 H112       -3.9740   16.1570   -7.3520 hn        1 33Z      0.499467
     82 H432       -1.2160    4.2450   -4.8400 hn        1 33Z      0.512300
     83 H312       -2.5910    3.7200   -8.9840 hn        1 33Z      0.477300
     84 H92        -1.4490   14.7000   -5.2040 hn        1 33Z      0.475300
     85 H113       -2.4640   16.4770   -6.7010 hn        1 33Z      0.499467
@<TRIPOS>BOND
     1    1    4 ar  
     2    1    6 ar  
     3    1   45 1   
     4    2    3 ar  
     5    2    5 ar  
     6    2   46 1   
     7    3    4 ar  
     8    3   47 1   
     9    4   48 1   
    10    5    6 ar  
    11    5   49 1   
    12    6    7 1   
    13    7    8 1   
    14    7   50 1   
    15    7   51 1   
    16    8    9 1   
    17    9   10 2   
    18    9   11 1   
    19   11   12 1   
    20   11   52 1   
    21   11   82 1   
    22   12   13 1   
    23   12   20 1   
    24   12   53 1   
    25   13   14 1   
    26   13   54 1   
    27   13   55 1   
    28   14   15 ar  
    29   14   19 ar  
    30   15   16 ar  
    31   15   56 1   
    32   16   17 ar  
    33   16   57 1   
    34   17   18 ar  
    35   17   58 1   
    36   18   19 ar  
    37   18   59 1   
    38   19   60 1   
    39   20   21 2   
    40   20   22 1   
    41   22   23 1   
    42   22   61 1   
    43   22   83 1   
    44   23   24 1   
    45   23   27 1   
    46   23   62 1   
    47   24   25 1   
    48   24   26 1   
    49   24   63 1   
    50   25   64 1   
    51   25   65 1   
    52   25   66 1   
    53   26   67 1   
    54   26   68 1   
    55   26   69 1   
    56   27   28 2   
    57   27   29 1   
    58   27   30 1   
    59   29   70 1   
    60   30   31 1   
    61   30   71 1   
    62   30   72 1   
    63   31   32 1   
    64   31   35 1   
    65   31   73 1   
    66   32   33 1   
    67   32   34 1   
    68   35   36 ar  
    69   35   37 ar  
    70   36   40 ar  
    71   36   74 1   
    72   37   38 ar  
    73   37   75 1   
    74   38   39 ar  
    75   38   76 1   
    76   39   40 ar  
    77   39   77 1   
    78   40   41 1   
    79   41   42 1   
    80   41   78 1   
    81   41   84 1   
    82   42   43 2   
    83   42   44 1   
    84   43   79 1   
    85   44   80 1   
    86   44   81 1   
    87   44   85 1   
@<TRIPOS>SUBSTRUCTURE
     1 33Z         1 TEMP              0 ****  ****    0 ROOT
