@<TRIPOS>MOLECULE
33Z
   81    75     1     0     0
SMALL
bcc


@<TRIPOS>ATOM
      1 C49         1.4850    3.0670    5.2260 c1        1 33Z     -0.106000
      2 C50         2.0390    2.6460    6.4270 c1        1 33Z     -0.135750
      3 C51         2.5700    3.5750    7.3110 c1        1 33Z     -0.135750
      4 C52         2.5480    4.9310    6.9930 c1        1 33Z     -0.135750
      5 C53         1.9920    5.3540    5.7860 c1        1 33Z     -0.135750
      6 C48         1.4630    4.4270    4.9060 c1        1 33Z     -0.107000
      7 C47         0.8450    4.8900    3.5860 c3        1 33Z      0.034000
      8 O46         1.7100    4.5640    2.5210 os        1 33Z     -0.283000
      9 C44         1.0530    4.4230    1.2740 c2        1 33Z      0.382000
     10 O45        -0.0730    4.8620    1.1280 o         1 33Z     -0.388000
     11 N43         1.7520    3.8380    0.1500 n         1 33Z     -0.303000
     12 C34         1.0300    3.2370   -0.8850 c3        1 33Z      0.001000
     13 C35         1.8540    3.2840   -2.1780 c3        1 33Z     -0.130000
     14 C36         1.4530    4.5090   -2.9940 c2        1 33Z     -0.067000
     15 C37         2.3810    5.5080   -3.2490 c2        1 33Z     -0.113000
     16 C38         2.0270    6.6020   -4.0230 c1        1 33Z     -0.137000
     17 C41         0.7450    6.6970   -4.5400 c1        1 33Z     -0.135750
     18 C40        -0.1810    5.7000   -4.2850 c1        1 33Z     -0.135750
     19 C39         0.1730    4.6060   -3.5120 c1        1 33Z     -0.118000
     20 C32         0.7310    1.7770   -0.5200 c2        1 33Z      0.275000
     21 O33         1.6480    1.0330   -0.1370 o         1 33Z     -0.388000
     22 N31        -0.6590    1.2930   -0.5160 n         1 33Z     -0.317000
     23 C27        -0.9750    0.0030    0.0540 c3        1 33Z     -0.670000
     24 C28        -2.1380    0.1490    1.0360 c3        1 33Z     -0.128000
     25 C30        -1.7360   -0.4270    2.3870 c3        1 33Z     -0.204000
     26 C29        -2.4820    1.6060    1.1920 c3        1 33Z     -0.204000
     27 P24        -1.4380   -1.1240   -1.2460 p5        1 33Z      2.803000
     28 O25        -0.5570   -0.9330   -2.3950 o         1 33Z     -1.133000
     29 O26        -2.9130   -0.8460   -1.6730 oh        1 33Z     -0.852000
     30 C23        -1.2880   -2.8600   -0.6390 c3        1 33Z     -0.916000
     31 C1         -1.4250   -3.8110   -1.7970 c3        1 33Z     -0.147000
     32 C2         -2.7690   -3.6300   -2.4380 c2        1 33Z      0.331000
     33 O14        -2.8520   -3.4560   -3.6700 o         1 33Z     -0.552000
     34 O13        -3.8080   -3.7520   -1.7540 o         1 33Z     -0.552000
     35 C3         -1.2890   -5.2590   -1.2910 c2        1 33Z     -0.015000
     36 C8         -0.2520   -6.0680   -1.7600 c2        1 33Z     -0.134000
     37 C4         -2.1580   -5.7390   -0.2970 c1        1 33Z     -0.099000
     38 C5         -1.9820   -7.0270    0.2220 c1        1 33Z     -0.135750
     39 C6         -0.9420   -7.8370   -0.2490 c1        1 33Z     -0.135750
     40 C7         -0.0790   -7.3630   -1.2350 c1        1 33Z     -0.007000
     41 N9          1.0630   -8.1930   -1.6720 n3        1 33Z     -0.283000
     42 C10         0.8570   -9.2620   -2.6550 c2        1 33Z      0.191000
     43 N12         0.7740  -10.5110   -2.2600 n1        1 33Z     -0.389000
     44 N11         0.7480   -8.9450   -4.0270 n3        1 33Z     -0.340000
     45 H49         1.1450    2.4140    4.5940 ha        1 33Z      0.146000
     46 H50         2.0540    1.6860    6.6530 ha        1 33Z      0.125750
     47 H51         2.9580    3.2790    8.1540 ha        1 33Z      0.125750
     48 H52         2.9210    5.5890    7.6190 ha        1 33Z      0.125750
     49 H53         1.9760    6.2960    5.5640 ha        1 33Z      0.125750
     50 H471        0.7060    5.8760    3.6110 h1        1 33Z      0.112500
     51 H472       -0.0150    4.4430    3.4550 h1        1 33Z      0.112500
     52 HN43        2.6680    3.9230    0.0830 hn        1 33Z      0.240000
     53 H34         0.1710    3.7280   -1.0200 h1        1 33Z      0.142000
     54 H351        2.8290    3.3390   -1.9520 hc        1 33Z      0.118500
     55 H352        1.6830    2.4630   -2.7100 hc        1 33Z      0.118500
     56 H37         3.3200    5.3870   -2.9720 ha        1 33Z      0.133000
     57 H38         2.6780    7.3040   -4.2030 ha        1 33Z      0.123000
     58 H41         0.5000    7.4610   -5.1120 ha        1 33Z      0.125750
     59 H40        -1.0750    5.7670   -4.6470 ha        1 33Z      0.125750
     60 H39        -0.4870    3.8960   -3.3310 ha        1 33Z      0.142000
     61 HN31       -1.3190    1.7920   -0.9170 hn        1 33Z      0.237000
     62 H27        -0.1900   -0.3480    0.5260 h1        1 33Z      0.153000
     63 H28        -2.9310   -0.3440    0.6880 hc        1 33Z      0.130000
     64 H301       -0.7450   -0.4070    2.4730 hc        1 33Z      0.075833
     65 H302       -2.0530   -1.3540    2.4550 hc        1 33Z      0.075833
     66 H303       -2.1420    0.1170    3.1120 hc        1 33Z      0.075833
     67 H291       -3.0600    1.7210    1.9680 hc        1 33Z      0.075833
     68 H292       -2.9490    1.9210    0.3870 hc        1 33Z      0.075833
     69 H293       -1.6760    2.1140    1.3150 hc        1 33Z      0.075833
     70 HO26       -2.9190   -0.3920   -2.4280 ho        1 33Z      0.316000
     71 H231       -0.4020   -2.9850   -0.2120 hc        1 33Z      0.150500
     72 H232       -1.9950   -3.0400    0.0170 hc        1 33Z      0.150500
     73 H1         -0.7110   -3.6250   -2.4660 hc        1 33Z      0.094000
     74 H8          0.3640   -5.7280   -2.4280 ha        1 33Z      0.152000
     75 H4         -2.9400   -5.2060   -0.0290 ha        1 33Z      0.171000
     76 H5         -2.5920   -7.3650    0.9210 ha        1 33Z      0.125750
     77 H6         -0.8200   -8.7400    0.1160 ha        1 33Z      0.125750
     78 HN9         1.8880   -8.0860   -1.2740 hn        1 33Z      0.192000
     79 HN12        0.8450  -10.7160   -1.3720 DU        1 33Z      0.133000
     80 H111        0.9660   -9.5690   -4.6580 hn        1 33Z      0.211500
     81 H112        0.4020   -8.1460   -4.2810 hn        1 33Z      0.211500
@<TRIPOS>BOND
     1    1    6 1   
     2    1   45 1   
     3    2    3 1   
     4    2   46 1   
     5    3   47 1   
     6    4    5 1   
     7    4   48 1   
     8    5   49 1   
     9    6    7 1   
    10    7    8 1   
    11    7   50 1   
    12    7   51 1   
    13    8    9 1   
    14    9   10 1   
    15    9   11 1   
    16   11   12 1   
    17   11   52 1   
    18   12   13 1   
    19   12   20 1   
    20   12   53 1   
    21   13   14 1   
    22   13   54 1   
    23   13   55 1   
    24   14   15 1   
    25   14   19 1   
    26   15   16 1   
    27   15   56 1   
    28   16   57 1   
    29   17   18 1   
    30   17   58 1   
    31   18   59 1   
    32   19   60 1   
    33   20   21 1   
    34   20   22 1   
    35   22   23 1   
    36   22   61 1   
    37   23   24 1   
    38   23   27 1   
    39   23   62 1   
    40   24   25 1   
    41   24   26 1   
    42   24   63 1   
    43   25   64 1   
    44   25   65 1   
    45   25   66 1   
    46   26   67 1   
    47   26   68 1   
    48   26   69 1   
    49   27   28 1   
    50   27   29 1   
    51   27   30 1   
    52   29   70 1   
    53   30   31 1   
    54   30   71 1   
    55   30   72 1   
    56   31   32 1   
    57   31   35 1   
    58   31   73 1   
    59   32   33 1   
    60   32   34 1   
    61   35   36 1   
    62   35   37 1   
    63   36   40 1   
    64   36   74 1   
    65   37   75 1   
    66   38   39 1   
    67   38   76 1   
    68   39   77 1   
    69   40   41 1   
    70   41   42 1   
    71   41   78 1   
    72   42   43 1   
    73   42   44 1   
    74   44   80 1   
    75   44   81 1   
@<TRIPOS>SUBSTRUCTURE
     1 33Z         1 TEMP              0 ****  ****    0 ROOT
