@<TRIPOS>MOLECULE
33Z
   83    85     1     0     0
SMALL
bcc


@<TRIPOS>ATOM
      1 C49        -1.7600    0.7490   -0.2880 ca        1 33Z     -0.090000
      2 C50         0.7160    2.0180   -0.0330 ca        1 33Z     -0.130500
      3 C51        -0.0210    1.6870    1.1050 ca        1 33Z     -0.089000
      4 C52        -1.2580    1.0530    0.9760 ca        1 33Z     -0.130500
      5 C53         0.2200    1.7160   -1.3000 ca        1 33Z     -0.090000
      6 C48        -1.0230    1.0850   -1.4310 ca        1 33Z     -0.143300
      7 C47        -1.5750    0.8050   -2.7790 c3        1 33Z      0.213700
      8 O46        -1.1500   -0.5720   -3.0890 os        1 33Z     -0.407900
      9 C44        -1.5290   -1.0380   -4.2930 c         1 33Z      0.618100
     10 O45        -2.1540   -0.4020   -5.1330 o         1 33Z     -0.441000
     11 N43        -1.0710   -2.4450   -4.4650 n4        1 33Z     -0.632800
     12 C34        -1.5600   -3.0920   -5.7350 c3        1 33Z      0.048500
     13 C35        -0.4200   -3.7860   -6.5050 c3        1 33Z     -0.069100
     14 C36         0.8420   -3.0000   -6.5050 ca        1 33Z     -0.153300
     15 C37         0.9950   -1.9010   -7.3600 ca        1 33Z     -0.129000
     16 C38         2.1960   -1.1950   -7.3840 ca        1 33Z     -0.121000
     17 C41         3.2530   -1.5820   -6.5590 ca        1 33Z     -0.105000
     18 C40         3.1080   -2.6820   -5.7120 ca        1 33Z     -0.121000
     19 C39         1.9080   -3.3910   -5.6840 ca        1 33Z     -0.129000
     20 C32        -2.6410   -4.1540   -5.3820 c         1 33Z      0.664100
     21 O33        -2.9350   -4.3500   -4.1810 o         1 33Z     -0.624100
     22 N31        -3.1740   -4.8420   -6.4280 n         1 33Z     -0.488900
     23 C27        -3.8250   -6.1230   -6.2700 c3        1 33Z     -0.187500
     24 C28        -5.1920   -6.2470   -6.9650 c3        1 33Z     -0.080700
     25 C30        -6.3130   -6.1770   -5.9450 c3        1 33Z     -0.091600
     26 C29        -5.4470   -5.2300   -8.0600 c3        1 33Z     -0.091600
     27 P24        -2.7470   -7.3230   -6.8370 p5        1 33Z      1.481100
     28 O25        -1.3750   -6.9950   -6.4420 o         1 33Z     -0.867300
     29 O26        -2.8770   -7.2260   -8.4270 oh        1 33Z     -0.802400
     30 C23        -3.3570   -8.7540   -6.3150 c3        1 33Z     -0.434600
     31 C1         -3.0330   -9.8920   -7.2600 c3        1 33Z     -0.139400
     32 C2         -4.1430  -10.1500   -8.3460 c         1 33Z      0.947600
     33 O14        -5.0140   -9.2680   -8.5480 o         1 33Z     -0.844800
     34 O13        -4.0740  -11.2300   -9.0070 o         1 33Z     -0.844800
     35 C3         -2.7830  -11.1990   -6.5830 ca        1 33Z     -0.019300
     36 C8         -2.1990  -12.1990   -7.3740 ca        1 33Z     -0.143000
     37 C4         -3.2110  -11.5230   -5.2920 ca        1 33Z     -0.109000
     38 C5         -3.0800  -12.8280   -4.8160 ca        1 33Z     -0.117000
     39 C6         -2.6030  -13.8480   -5.6350 ca        1 33Z     -0.108000
     40 C7         -2.1940  -13.5380   -6.9470 ca        1 33Z      0.029600
     41 N9         -1.8300  -14.5930   -7.8310 nh        1 33Z     -0.716600
     42 C10        -2.3810  -14.6590   -9.1320 c2        1 33Z      0.720100
     43 N12        -2.0730  -15.4620  -10.1040 n2        1 33Z     -0.808100
     44 N11        -3.5590  -13.7640   -9.4230 n4        1 33Z     -0.810600
     45 H49        -2.7360    0.2520   -0.3880 ha        1 33Z      0.137500
     46 H50         1.6900    2.5210    0.0690 ha        1 33Z      0.149500
     47 H51         0.3720    1.9280    2.1050 ha        1 33Z      0.150000
     48 H52        -1.8400    0.7930    1.8740 ha        1 33Z      0.149500
     49 H53         0.8010    1.9810   -2.1960 ha        1 33Z      0.137500
     50 H471       -1.1540    1.4730   -3.5740 h1        1 33Z      0.080700
     51 H472       -2.6960    0.8180   -2.8040 h1        1 33Z      0.080700
     52 HN43       -0.0370   -2.4530   -4.4470 hn        1 33Z      0.493800
     53 H34        -2.0190   -2.2830   -6.3800 hx        1 33Z      0.137700
     54 H351       -0.7750   -3.9170   -7.5660 hc        1 33Z      0.120200
     55 H352       -0.2500   -4.8260   -6.0970 hc        1 33Z      0.120200
     56 H37         0.1720   -1.6060   -8.0290 ha        1 33Z      0.143500
     57 H38         2.3150   -0.3380   -8.0650 ha        1 33Z      0.151000
     58 H41         4.2050   -1.0290   -6.5860 ha        1 33Z      0.152000
     59 H40         3.9480   -3.0010   -5.0740 ha        1 33Z      0.151000
     60 H39         1.8150   -4.2850   -5.0480 ha        1 33Z      0.143500
     61 HN31       -3.5670   -7.7270   -8.8740 ho        1 33Z      0.510000
     62 H27        -4.0100   -6.2640   -5.1600 h1        1 33Z      0.124700
     63 H28        -5.2300   -7.2720   -7.4510 hc        1 33Z      0.091700
     64 H301       -7.2990   -6.2960   -6.4550 hc        1 33Z      0.043533
     65 H302       -6.2090   -6.9930   -5.1900 hc        1 33Z      0.043533
     66 H303       -6.3030   -5.1950   -5.4150 hc        1 33Z      0.043533
     67 H291       -5.5140   -4.1960   -7.6480 hc        1 33Z      0.043533
     68 H292       -6.4210   -5.4680   -8.5570 hc        1 33Z      0.043533
     69 H293       -4.6490   -5.2660   -8.8420 hc        1 33Z      0.043533
     70 H231       -2.9260   -8.9860   -5.3030 hc        1 33Z      0.121200
     71 H232       -4.4740   -8.7520   -6.1720 hc        1 33Z      0.121200
     72 H1         -2.1080   -9.6080   -7.8430 hc        1 33Z      0.066700
     73 H8         -1.8060  -11.9150   -8.3650 ha        1 33Z      0.146000
     74 H4         -3.6780  -10.7620   -4.6480 ha        1 33Z      0.145000
     75 H5         -3.3910  -13.0650   -3.7860 ha        1 33Z      0.149000
     76 H6         -2.5620  -14.8820   -5.2610 ha        1 33Z      0.152000
     77 HN9        -0.8730  -14.8830   -7.7670 hn        1 33Z      0.448800
     78 HN12       -1.3050  -16.0840   -9.9730 hn        1 33Z      0.454400
     79 H111       -3.9990  -13.3930   -8.5600 hn        1 33Z      0.492467
     80 H112       -4.2570  -14.2600   -9.9830 hn        1 33Z      0.492467
     81 H432       -1.4210   -2.9940   -3.6510 hn        1 33Z      0.493800
     82 H312       -2.9460   -4.5960   -7.3650 hn        1 33Z      0.336500
     83 H113       -3.2360  -12.9240   -9.9410 hn        1 33Z      0.492467
@<TRIPOS>BOND
     1    1    4 ar  
     2    1    6 ar  
     3    1   45 1   
     4    2    3 ar  
     5    2    5 ar  
     6    2   46 1   
     7    3    4 ar  
     8    3   47 1   
     9    4   48 1   
    10    5    6 ar  
    11    5   49 1   
    12    6    7 1   
    13    7    8 1   
    14    7   50 1   
    15    7   51 1   
    16    8    9 1   
    17    9   10 2   
    18    9   11 1   
    19   11   12 1   
    20   11   52 1   
    21   11   81 1   
    22   12   13 1   
    23   12   20 1   
    24   12   53 1   
    25   13   14 1   
    26   13   54 1   
    27   13   55 1   
    28   14   15 ar  
    29   14   19 ar  
    30   15   16 ar  
    31   15   56 1   
    32   16   17 ar  
    33   16   57 1   
    34   17   18 ar  
    35   17   58 1   
    36   18   19 ar  
    37   18   59 1   
    38   19   60 1   
    39   20   21 2   
    40   20   22 1   
    41   22   23 1   
    42   22   82 1   
    43   23   24 1   
    44   23   27 1   
    45   23   62 1   
    46   24   25 1   
    47   24   26 1   
    48   24   63 1   
    49   25   64 1   
    50   25   65 1   
    51   25   66 1   
    52   26   67 1   
    53   26   68 1   
    54   26   69 1   
    55   27   28 2   
    56   27   29 1   
    57   27   30 1   
    58   29   61 1   
    59   30   31 1   
    60   30   70 1   
    61   30   71 1   
    62   31   32 1   
    63   31   35 1   
    64   31   72 1   
    65   32   33 1   
    66   32   34 1   
    67   35   36 ar  
    68   35   37 ar  
    69   36   40 ar  
    70   36   73 1   
    71   37   38 ar  
    72   37   74 1   
    73   38   39 ar  
    74   38   75 1   
    75   39   40 ar  
    76   39   76 1   
    77   40   41 1   
    78   41   42 1   
    79   41   77 1   
    80   42   43 2   
    81   42   44 1   
    82   43   78 1   
    83   44   79 1   
    84   44   80 1   
    85   44   83 1   
@<TRIPOS>SUBSTRUCTURE
     1 33Z         1 TEMP              0 ****  ****    0 ROOT
