@<TRIPOS>MOLECULE
33Z
   81    83     1     0     0
SMALL
bcc


@<TRIPOS>ATOM
      1 C49        -7.1800   -2.2430   -3.1850 ca        1 33Z     -0.112500
      2 C50        -8.0170   -3.1320   -3.8590 ca        1 33Z     -0.134000
      3 C51        -9.3290   -2.7690   -4.1590 ca        1 33Z     -0.131000
      4 C52        -9.8080   -1.5150   -3.7800 ca        1 33Z     -0.134000
      5 C53        -8.9780   -0.6250   -3.1010 ca        1 33Z     -0.112500
      6 C48        -7.6570   -0.9850   -2.8040 ca        1 33Z     -0.089300
      7 C47        -6.7790    0.0050   -2.1170 c3        1 33Z      0.194700
      8 O46        -5.8300   -0.7300   -1.3210 os        1 33Z     -0.443900
      9 C44        -4.9390    0.0590   -0.6130 c         1 33Z      0.727100
     10 O45        -4.9800    1.2890   -0.7770 o         1 33Z     -0.584000
     11 N43        -4.1600   -0.6780    0.2670 n         1 33Z     -0.490900
     12 C34        -2.9300   -0.0930    0.7610 c3        1 33Z      0.026700
     13 C35        -2.6700   -0.4540    2.2380 c3        1 33Z     -0.044100
     14 C36        -3.6380    0.2060    3.1540 ca        1 33Z     -0.075300
     15 C37        -4.8650   -0.3980    3.4500 ca        1 33Z     -0.116000
     16 C38        -5.7610    0.2190    4.3220 ca        1 33Z     -0.134000
     17 C41        -5.4370    1.4420    4.9080 ca        1 33Z     -0.134000
     18 C40        -4.2140    2.0480    4.6200 ca        1 33Z     -0.134000
     19 C39        -3.3170    1.4340    3.7470 ca        1 33Z     -0.116000
     20 C32        -1.6960   -0.6040   -0.0350 c         1 33Z      0.630100
     21 O33        -1.6940   -1.7520   -0.5260 o         1 33Z     -0.626100
     22 N31        -0.6060    0.2290   -0.0690 n         1 33Z     -0.507900
     23 C27         0.6200   -0.1040   -0.7420 c3        1 33Z     -0.185500
     24 C28         0.7670    0.4190   -2.1820 c3        1 33Z     -0.089700
     25 C30         0.5850   -0.7140   -3.1730 c3        1 33Z     -0.086100
     26 C29        -0.1710    1.5560   -2.5380 c3        1 33Z     -0.086100
     27 P24         1.9060    0.4520    0.2290 p5        1 33Z      1.483100
     28 O25         1.7260    0.1900    1.6570 o         1 33Z     -0.863300
     29 O26         1.8650    2.0340   -0.0040 oh        1 33Z     -0.820400
     30 C23         3.2440   -0.2480   -0.4240 c3        1 33Z     -0.431600
     31 C1          4.3670    0.7460   -0.6650 c3        1 33Z     -0.147400
     32 C2          4.2860    1.2880   -2.1340 c         1 33Z      0.912600
     33 O14         4.7940    0.6330   -3.0760 o         1 33Z     -0.818800
     34 O13         3.6220    2.3590   -2.2760 o         1 33Z     -0.818800
     35 C3          5.6990    0.1490   -0.3550 ca        1 33Z     -0.009300
     36 C8          6.4130    0.5930    0.7610 ca        1 33Z     -0.168000
     37 C4          6.2460   -0.8500   -1.1720 ca        1 33Z     -0.112000
     38 C5          7.4870   -1.3980   -0.8650 ca        1 33Z     -0.125000
     39 C6          8.2030   -0.9700    0.2500 ca        1 33Z     -0.181000
     40 C7          7.6700    0.0360    1.0810 ca        1 33Z      0.080600
     41 N9          8.3490    0.4200    2.2680 nh        1 33Z     -0.708600
     42 C10         9.7810    0.6790    2.1570 c2        1 33Z      0.748100
     43 N12        10.6290    0.3640    3.1020 n2        1 33Z     -0.863100
     44 N11        10.2420    1.3510    0.9900 nh        1 33Z     -0.907800
     45 H49        -6.1440   -2.5260   -2.9420 ha        1 33Z      0.142000
     46 H50        -7.6370   -4.1210   -4.1540 ha        1 33Z      0.129500
     47 H51        -9.9860   -3.4700   -4.6930 ha        1 33Z      0.126000
     48 H52       -10.8420   -1.2270   -4.0150 ha        1 33Z      0.129500
     49 H53        -9.3590    0.3620   -2.7980 ha        1 33Z      0.142000
     50 H471       -6.2140    0.6260   -2.8650 h1        1 33Z      0.064200
     51 H472       -7.3640    0.6850   -1.4420 h1        1 33Z      0.064200
     52 HN43       -4.1190   -1.6630    0.0940 hn        1 33Z      0.326500
     53 H34        -3.0180    1.0320    0.6720 h1        1 33Z      0.102700
     54 H351       -2.7140   -1.5680    2.3680 hc        1 33Z      0.079700
     55 H352       -1.6230   -0.1280    2.4900 hc        1 33Z      0.079700
     56 H37        -5.1240   -1.3600    2.9840 ha        1 33Z      0.137500
     57 H38        -6.7240   -0.2610    4.5460 ha        1 33Z      0.126000
     58 H41        -6.1440    1.9280    5.5960 ha        1 33Z      0.123000
     59 H40        -3.9550    3.0120    5.0800 ha        1 33Z      0.126000
     60 H39        -2.3500    1.9120    3.5260 ha        1 33Z      0.137500
     61 HN31       -0.7160    1.1930    0.1510 hn        1 33Z      0.323500
     62 H27         0.6540   -1.2360   -0.8000 h1        1 33Z      0.114700
     63 H28         1.8220    0.8200   -2.2990 hc        1 33Z      0.091700
     64 H301       -0.4130   -1.1960   -3.0350 hc        1 33Z      0.036367
     65 H302        0.6600   -0.3270   -4.2170 hc        1 33Z      0.036367
     66 H303        1.3780   -1.4880   -3.0290 hc        1 33Z      0.036367
     67 H291       -0.0550    2.4110   -1.8290 hc        1 33Z      0.036367
     68 H292        0.0780    1.9260   -3.5640 hc        1 33Z      0.036367
     69 H293       -1.2350    1.2200   -2.5380 hc        1 33Z      0.036367
     70 HO26        2.3320    2.4260   -0.7540 ho        1 33Z      0.518000
     71 H231        3.6170   -1.0450    0.2780 hc        1 33Z      0.112200
     72 H232        3.0680   -0.7890   -1.3930 hc        1 33Z      0.112200
     73 H1          4.2110    1.6330    0.0170 hc        1 33Z      0.051700
     74 H8          5.9820    1.3830    1.3960 ha        1 33Z      0.132000
     75 H4          5.6970   -1.1520   -2.0820 ha        1 33Z      0.177000
     76 H5          7.9130   -2.1780   -1.5120 ha        1 33Z      0.121000
     77 H6          9.1750   -1.4270    0.4840 ha        1 33Z      0.122000
     78 HN9         7.8880    1.1760    2.7400 hn        1 33Z      0.399800
     79 HN12       10.2230   -0.0230    3.9260 hn        1 33Z      0.398400
     80 H111        9.7110    1.1570    0.1670 hn        1 33Z      0.404300
     81 H112       11.2260    1.2920    0.8430 hn        1 33Z      0.404300
@<TRIPOS>BOND
     1    1    2 ar  
     2    1    6 ar  
     3    1   45 1   
     4    2    3 ar  
     5    2   46 1   
     6    3    4 ar  
     7    3   47 1   
     8    4    5 ar  
     9    4   48 1   
    10    5    6 ar  
    11    5   49 1   
    12    6    7 1   
    13    7    8 1   
    14    7   50 1   
    15    7   51 1   
    16    8    9 1   
    17    9   10 2   
    18    9   11 1   
    19   11   12 1   
    20   11   52 1   
    21   12   13 1   
    22   12   20 1   
    23   12   53 1   
    24   13   14 1   
    25   13   54 1   
    26   13   55 1   
    27   14   15 ar  
    28   14   19 ar  
    29   15   16 ar  
    30   15   56 1   
    31   16   17 ar  
    32   16   57 1   
    33   17   18 ar  
    34   17   58 1   
    35   18   19 ar  
    36   18   59 1   
    37   19   60 1   
    38   20   21 2   
    39   20   22 1   
    40   22   23 1   
    41   22   61 1   
    42   23   24 1   
    43   23   27 1   
    44   23   62 1   
    45   24   25 1   
    46   24   26 1   
    47   24   63 1   
    48   25   64 1   
    49   25   65 1   
    50   25   66 1   
    51   26   67 1   
    52   26   68 1   
    53   26   69 1   
    54   27   28 2   
    55   27   29 1   
    56   27   30 1   
    57   29   70 1   
    58   30   31 1   
    59   30   71 1   
    60   30   72 1   
    61   31   32 1   
    62   31   35 1   
    63   31   73 1   
    64   32   33 1   
    65   32   34 1   
    66   35   36 ar  
    67   35   37 ar  
    68   36   40 ar  
    69   36   74 1   
    70   37   38 ar  
    71   37   75 1   
    72   38   39 ar  
    73   38   76 1   
    74   39   40 ar  
    75   39   77 1   
    76   40   41 1   
    77   41   42 1   
    78   41   78 1   
    79   42   43 2   
    80   42   44 1   
    81   43   79 1   
    82   44   80 1   
    83   44   81 1   
@<TRIPOS>SUBSTRUCTURE
     1 33Z         1 TEMP              0 ****  ****    0 ROOT
