@<TRIPOS>MOLECULE
340
   40    42     1     0     0
SMALL
bcc


@<TRIPOS>ATOM
      1 C1          0.1540   -0.0290   -0.2210 cc        1 340     -0.329200
      2 C2          1.6120    0.1240   -0.1770 c         1 340      0.620900
      3 C3          2.1750    0.1170    1.1780 cc        1 340     -0.160900
      4 C4          1.3820   -0.0440    2.3440 cd        1 340     -0.196600
      5 C5         -0.0570   -0.2250    2.2870 c         1 340      0.610900
      6 C6         -0.6060   -0.1820    0.8860 cd        1 340      0.090900
      7 N7          3.5000    0.2670    1.5660 na        1 340      0.002900
      8 C8          3.5680    0.2000    2.9630 cc        1 340     -0.069600
      9 C9          2.2620    0.0090    3.4700 cd        1 340     -0.098300
     10 O10        -0.7870   -0.4060    3.2640 o         1 340     -0.490100
     11 O11         2.2960    0.2510   -1.2030 o         1 340     -0.545100
     12 C12         4.6320    0.4440    0.7100 c3        1 340     -0.001400
     13 C19         1.8500   -0.1520    4.8780 c3        1 340      0.191700
     14 O20         2.5460    0.8330    5.6620 os        1 340     -0.336900
     15 C24         2.1400    0.9390    6.9790 ca        1 340      0.126100
     16 C25         2.7080    2.0210    7.6800 ca        1 340     -0.179500
     17 C26         2.3860    2.2020    9.0200 ca        1 340     -0.098000
     18 C27         1.5080    1.3260    9.6630 ca        1 340     -0.165000
     19 C28         0.9510    0.2610    8.9610 ca        1 340     -0.098000
     20 C29         1.2610    0.0560    7.6160 ca        1 340     -0.179500
     21 C37         4.8290    0.3260    3.7170 c3        1 340     -0.040800
     22 O44        -1.9680   -0.3250    0.8940 os        1 340     -0.291900
     23 C45        -2.6230   -0.3000   -0.3730 c3        1 340      0.103700
     24 H11        -0.2800   -0.0080   -1.2330 ha        1 340      0.162000
     25 H121        5.2570   -0.4910    0.7130 h1        1 340      0.071700
     26 H122        4.2930    0.6600   -0.3400 h1        1 340      0.071700
     27 H123        5.2560    1.2980    1.0900 h1        1 340      0.071700
     28 H191        2.1360   -1.1730    5.2550 h1        1 340      0.064700
     29 H192        0.7390   -0.0060    4.9790 h1        1 340      0.064700
     30 H251        3.3920    2.7040    7.1590 ha        1 340      0.143500
     31 H261        2.8240    3.0450    9.5740 ha        1 340      0.132000
     32 H271        1.2580    1.4790   10.7230 ha        1 340      0.132000
     33 H281        0.2580   -0.4290    9.4650 ha        1 340      0.132000
     34 H291        0.8110   -0.7880    7.0760 ha        1 340      0.143500
     35 H371        5.2850    1.3360    3.5590 hc        1 340      0.060700
     36 H372        4.6170    0.1990    4.8090 hc        1 340      0.060700
     37 H373        5.5670   -0.4510    3.3930 hc        1 340      0.060700
     38 H451       -2.4520    0.6790   -0.8830 h1        1 340      0.053700
     39 H452       -2.2690   -1.1450   -1.0130 h1        1 340      0.053700
     40 H453       -3.7020   -0.4270   -0.1050 h1        1 340      0.053700
@<TRIPOS>BOND
     1    1    2 1   
     2    1    6 2   
     3    1   24 1   
     4    2    3 1   
     5    2   11 2   
     6    3    4 2   
     7    3    7 1   
     8    4    5 1   
     9    4    9 1   
    10    5    6 1   
    11    5   10 2   
    12    6   22 1   
    13    7    8 1   
    14    7   12 1   
    15    8    9 2   
    16    8   21 1   
    17    9   13 1   
    18   12   25 1   
    19   12   26 1   
    20   12   27 1   
    21   13   14 1   
    22   13   28 1   
    23   13   29 1   
    24   14   15 1   
    25   15   16 ar  
    26   15   20 ar  
    27   16   17 ar  
    28   16   30 1   
    29   17   18 ar  
    30   17   31 1   
    31   18   19 ar  
    32   18   32 1   
    33   19   20 ar  
    34   19   33 1   
    35   20   34 1   
    36   21   35 1   
    37   21   36 1   
    38   21   37 1   
    39   22   23 1   
    40   23   38 1   
    41   23   39 1   
    42   23   40 1   
@<TRIPOS>SUBSTRUCTURE
     1 340         1 TEMP              0 ****  ****    0 ROOT
