@<TRIPOS>MOLECULE
340
   40    42     1     0     0
SMALL
bcc


@<TRIPOS>ATOM
      1 C1          0.8210    0.1250    3.8880 cc        1 340     -0.329200
      2 C2         -0.6100    0.3200    3.6280 c         1 340      0.620900
      3 C3         -0.9960    0.1240    2.2250 cc        1 340     -0.160900
      4 C4         -0.0720   -0.2430    1.2130 cd        1 340     -0.196600
      5 C5          1.3360   -0.4640    1.4880 c         1 340      0.610900
      6 C6          1.7050   -0.2240    2.9280 cd        1 340      0.090900
      7 N7         -2.2520    0.2510    1.6480 na        1 340      0.002900
      8 C8         -2.1470   -0.0250    0.2790 cc        1 340     -0.068600
      9 C9         -0.7980   -0.3360   -0.0160 cd        1 340     -0.098300
     10 O10         2.1730   -0.8210    0.6560 o         1 340     -0.489100
     11 O11        -1.4100    0.6260    4.5230 o         1 340     -0.545100
     12 C12        -3.4660    0.6320    2.3030 c3        1 340     -0.002400
     13 C19        -0.2230   -0.7260   -1.3170 c3        1 340      0.191700
     14 O20        -0.7340    0.1730   -2.3170 os        1 340     -0.336900
     15 C24        -0.1630    0.0550   -3.5700 ca        1 340      0.126100
     16 C25        -0.5570    1.0480   -4.4880 ca        1 340     -0.179500
     17 C26        -0.0590    1.0060   -5.7850 ca        1 340     -0.098000
     18 C27         0.8220   -0.0050   -6.1740 ca        1 340     -0.165000
     19 C28         1.2080   -0.9810   -5.2590 ca        1 340     -0.098000
     20 C29         0.7200   -0.9620   -3.9510 ca        1 340     -0.179500
     21 C37        -3.2950    0.0170   -0.6440 c3        1 340     -0.041800
     22 O44         3.0470   -0.4120    3.1220 os        1 340     -0.291900
     23 C45         3.5370   -0.2140    4.4470 c3        1 340      0.103700
     24 H11         1.1240    0.2870    4.9340 ha        1 340      0.162000
     25 H121       -3.7540    1.6720    1.9880 h1        1 340      0.072033
     26 H122       -4.2860   -0.0770    2.0070 h1        1 340      0.072033
     27 H123       -3.3270    0.6070    3.4180 h1        1 340      0.072033
     28 H191        0.9000   -0.6610   -1.2830 h1        1 340      0.064700
     29 H192       -0.5370   -1.7730   -1.5870 h1        1 340      0.064700
     30 H251       -1.2470    1.8390   -4.1650 ha        1 340      0.143500
     31 H261       -0.3620    1.7790   -6.5080 ha        1 340      0.132000
     32 H271        1.2110   -0.0280   -7.2020 ha        1 340      0.132000
     33 H281        1.9040   -1.7770   -5.5630 ha        1 340      0.132000
     34 H291        1.0360   -1.7390   -3.2420 ha        1 340      0.143500
     35 H371       -3.7950    1.0190   -0.6130 hc        1 340      0.061033
     36 H372       -2.9350   -0.1700   -1.6870 hc        1 340      0.061033
     37 H373       -4.0510   -0.7630   -0.3720 hc        1 340      0.061033
     38 H451        4.6340   -0.4180    4.3460 h1        1 340      0.054033
     39 H452        3.3560    0.8370    4.7780 h1        1 340      0.054033
     40 H453        3.0610   -0.9370    5.1530 h1        1 340      0.054033
@<TRIPOS>BOND
     1    1    2 1   
     2    1    6 2   
     3    1   24 1   
     4    2    3 1   
     5    2   11 2   
     6    3    4 2   
     7    3    7 1   
     8    4    5 1   
     9    4    9 1   
    10    5    6 1   
    11    5   10 2   
    12    6   22 1   
    13    7    8 1   
    14    7   12 1   
    15    8    9 2   
    16    8   21 1   
    17    9   13 1   
    18   12   25 1   
    19   12   26 1   
    20   12   27 1   
    21   13   14 1   
    22   13   28 1   
    23   13   29 1   
    24   14   15 1   
    25   15   16 ar  
    26   15   20 ar  
    27   16   17 ar  
    28   16   30 1   
    29   17   18 ar  
    30   17   31 1   
    31   18   19 ar  
    32   18   32 1   
    33   19   20 ar  
    34   19   33 1   
    35   20   34 1   
    36   21   35 1   
    37   21   36 1   
    38   21   37 1   
    39   22   23 1   
    40   23   38 1   
    41   23   39 1   
    42   23   40 1   
@<TRIPOS>SUBSTRUCTURE
     1 340         1 TEMP              0 ****  ****    0 ROOT
