@<TRIPOS>MOLECULE
340
   40    42     1     0     0
SMALL
bcc


@<TRIPOS>ATOM
      1 C1          0.1420   -0.0520   -0.2140 cc        1 340     -0.329200
      2 C2          1.6000    0.1060   -0.1760 c         1 340      0.620900
      3 C3          2.1670    0.1080    1.1780 cc        1 340     -0.160900
      4 C4          1.3780   -0.0510    2.3470 cd        1 340     -0.196600
      5 C5         -0.0590   -0.2380    2.2950 c         1 340      0.610900
      6 C6         -0.6140   -0.2030    0.8960 cd        1 340      0.090900
      7 N7          3.4930    0.2640    1.5600 na        1 340      0.002900
      8 C8          3.5660    0.2040    2.9580 cc        1 340     -0.069600
      9 C9          2.2620    0.0100    3.4700 cd        1 340     -0.098300
     10 O10        -0.7860   -0.4170    3.2750 o         1 340     -0.490100
     11 O11         2.2800    0.2310   -1.2040 o         1 340     -0.545100
     12 C12         4.6220    0.4410    0.7000 c3        1 340     -0.001400
     13 C19         1.8560   -0.1460    4.8800 c3        1 340      0.191700
     14 O20         2.5510    0.8450    5.6570 os        1 340     -0.336900
     15 C24         2.1500    0.9560    6.9740 ca        1 340      0.126100
     16 C25         2.7160    2.0420    7.6690 ca        1 340     -0.179500
     17 C26         2.3990    2.2280    9.0090 ca        1 340     -0.098000
     18 C27         1.5270    1.3520    9.6600 ca        1 340     -0.165000
     19 C28         0.9690    0.2820    8.9640 ca        1 340     -0.098000
     20 C29         1.2750    0.0730    7.6190 ca        1 340     -0.179500
     21 C37         4.8280    0.3380    3.7070 c3        1 340     -0.040800
     22 O44        -1.9750   -0.3510    0.9090 os        1 340     -0.291900
     23 C45        -2.6340   -0.3340   -0.3560 c3        1 340      0.103700
     24 H11        -0.2950   -0.0380   -1.2250 ha        1 340      0.162000
     25 H121        5.2510   -0.4900    0.7070 h1        1 340      0.071700
     26 H122        4.2790    0.6490   -0.3500 h1        1 340      0.071700
     27 H123        5.2420    1.3010    1.0730 h1        1 340      0.071700
     28 H191        2.1460   -1.1640    5.2610 h1        1 340      0.064700
     29 H192        0.7440   -0.0020    4.9840 h1        1 340      0.064700
     30 H251        3.3970    2.7250    7.1430 ha        1 340      0.143500
     31 H261        2.8370    3.0740    9.5590 ha        1 340      0.132000
     32 H271        1.2800    1.5090   10.7200 ha        1 340      0.132000
     33 H281        0.2800   -0.4080    9.4740 ha        1 340      0.132000
     34 H291        0.8260   -0.7750    7.0840 ha        1 340      0.143500
     35 H371        5.2810    1.3490    3.5420 hc        1 340      0.060700
     36 H372        4.6210    0.2160    4.8000 hc        1 340      0.060700
     37 H373        5.5680   -0.4380    3.3850 hc        1 340      0.060700
     38 H451       -2.4680    0.6430   -0.8710 h1        1 340      0.053700
     39 H452       -2.2800   -1.1800   -0.9930 h1        1 340      0.053700
     40 H453       -3.7120   -0.4640   -0.0830 h1        1 340      0.053700
@<TRIPOS>BOND
     1    1    2 1   
     2    1    6 2   
     3    1   24 1   
     4    2    3 1   
     5    2   11 2   
     6    3    4 2   
     7    3    7 1   
     8    4    5 1   
     9    4    9 1   
    10    5    6 1   
    11    5   10 2   
    12    6   22 1   
    13    7    8 1   
    14    7   12 1   
    15    8    9 2   
    16    8   21 1   
    17    9   13 1   
    18   12   25 1   
    19   12   26 1   
    20   12   27 1   
    21   13   14 1   
    22   13   28 1   
    23   13   29 1   
    24   14   15 1   
    25   15   16 ar  
    26   15   20 ar  
    27   16   17 ar  
    28   16   30 1   
    29   17   18 ar  
    30   17   31 1   
    31   18   19 ar  
    32   18   32 1   
    33   19   20 ar  
    34   19   33 1   
    35   20   34 1   
    36   21   35 1   
    37   21   36 1   
    38   21   37 1   
    39   22   23 1   
    40   23   38 1   
    41   23   39 1   
    42   23   40 1   
@<TRIPOS>SUBSTRUCTURE
     1 340         1 TEMP              0 ****  ****    0 ROOT
