@<TRIPOS>MOLECULE
340
   40    35     1     0     0
SMALL
bcc


@<TRIPOS>ATOM
      1 C1         -1.7000   -0.4060   -3.9210 c1        1 340     -0.308000
      2 C2         -0.1980   -0.3640   -3.8920 c1        1 340      0.341000
      3 C3          0.5510   -0.3390   -2.5240 c2        1 340     -0.116000
      4 C4         -0.1740   -0.3520   -1.3250 c1        1 340     -0.177000
      5 C5         -1.7350   -0.3920   -1.3530 c1        1 340      0.331000
      6 C6         -2.4600   -0.4270   -2.6590 c2        1 340      0.064000
      7 N7          1.8880   -0.4010   -2.2120 n2        1 340     -0.062000
      8 C8          2.0040   -0.4520   -0.8380 c1        1 340     -0.039000
      9 C9          0.7190   -0.4220   -0.2930 c1        1 340     -0.121000
     10 O10        -2.3550   -0.4310   -0.3220 o         1 340     -0.253000
     11 O11         0.4220   -0.2420   -4.9210 o         1 340     -0.304000
     12 C12         2.8760   -0.3240   -3.2480 c2        1 340     -0.135000
     13 C19         0.4570   -0.6020    1.2010 c2        1 340      0.032000
     14 O20         0.3930    0.6800    1.8320 os        1 340     -0.219000
     15 C24         0.1890    0.6210    3.2690 c2        1 340      0.078000
     16 C25         1.2480    0.9050    4.1320 c2        1 340     -0.161000
     17 C26         1.0250    1.0000    5.4960 c1        1 340     -0.104000
     18 C27        -0.2630    0.8110    6.0140 c1        1 340     -0.130500
     19 C28        -1.3160    0.5290    5.1630 c1        1 340     -0.130500
     20 C29        -1.0930    0.4330    3.7820 c1        1 340     -0.192000
     21 C37         3.4740   -0.5830   -0.3210 c2        1 340     -0.135000
     22 O44        -3.8770   -0.5880   -2.6810 os        1 340     -0.176000
     23 C45        -4.5750    0.5480   -3.1600 c3        1 340     -0.086000
     24 H11        -2.1690   -0.4290   -4.7690 ha        1 340      0.162000
     25 H121        3.7670   -0.2870   -2.8460 ha        1 340      0.106500
     26 H122        2.8100   -1.1270   -3.8320 ha        1 340      0.106500
     27 H123        2.7280    0.4720   -3.7770 ha        1 340      0.106500
     28 H191        1.1720   -1.1180    1.5920 h4        1 340      0.118500
     29 H192       -0.3750   -1.0610    1.3260 h4        1 340      0.118500
     30 H251        2.1530    1.0380    3.7720 ha        1 340      0.143000
     31 H261        1.7550    1.1950    6.0870 ha        1 340      0.130000
     32 H271       -0.4150    0.8770    6.9610 ha        1 340      0.131500
     33 H281       -2.2210    0.3960    5.5270 ha        1 340      0.131500
     34 H291       -1.8250    0.2370    3.1890 ha        1 340      0.151000
     35 H371        3.9640    0.2490   -0.5130 ha        1 340      0.106500
     36 H372        3.4670   -0.7430    0.6510 ha        1 340      0.106500
     37 H373        3.9150   -1.3350   -0.7730 ha        1 340      0.106500
     38 H451       -5.5060    0.5480   -2.7950 h1        1 340      0.093000
     39 H452       -4.1120    1.3610   -2.8700 h1        1 340      0.093000
     40 H453       -4.6070    0.5230   -4.1460 h1        1 340      0.093000
@<TRIPOS>BOND
     1    1    6 1   
     2    1   24 1   
     3    2    3 1   
     4    2   11 1   
     5    3    4 1   
     6    3    7 1   
     7    4    9 1   
     8    5    6 1   
     9    5   10 1   
    10    6   22 1   
    11    7    8 1   
    12    8    9 1   
    13   12   25 1   
    14   12   26 1   
    15   12   27 1   
    16   13   14 1   
    17   13   28 1   
    18   13   29 1   
    19   14   15 1   
    20   15   16 1   
    21   15   20 1   
    22   16   17 1   
    23   16   30 1   
    24   17   31 1   
    25   18   19 1   
    26   18   32 1   
    27   19   33 1   
    28   20   34 1   
    29   21   35 1   
    30   21   36 1   
    31   21   37 1   
    32   22   23 1   
    33   23   38 1   
    34   23   39 1   
    35   23   40 1   
@<TRIPOS>SUBSTRUCTURE
     1 340         1 TEMP              0 ****  ****    0 ROOT
