@<TRIPOS>MOLECULE
341
   16    16     1     0     0
SMALL
bcc


@<TRIPOS>ATOM
      1 C3         -0.0260   -0.3460    0.0140 ca        1 341      0.151400
      2 C4          1.3750   -0.2700   -0.0350 ca        1 341     -0.170000
      3 C5          2.0840    0.1100    1.1090 ca        1 341     -0.038300
      4 C6          1.4130    0.4120    2.2930 ca        1 341     -0.170000
      5 C1          0.0080    0.3320    2.3310 ca        1 341      0.151400
      6 C2         -0.7250   -0.0470    1.1960 ca        1 341     -0.207000
      7 F8         -0.6480    0.6250    3.4790 f         1 341     -0.135400
      8 C9          3.5750    0.1800    1.0180 c3        1 341      0.173700
      9 O10         4.1070    0.5850    2.2700 oh        1 341     -0.597800
     10 F7         -0.7160   -0.7140   -1.0930 f         1 341     -0.135400
     11 H4          1.9020   -0.5080   -0.9700 ha        1 341      0.163000
     12 H6          1.9740    0.7110    3.1920 ha        1 341      0.163000
     13 H2         -1.8210   -0.1080    1.2290 ha        1 341      0.165000
     14 H9          3.8700    0.9200    0.2230 h1        1 341      0.038700
     15 H9A         3.9830   -0.8330    0.7420 h1        1 341      0.038700
     16 HO10        5.0650    0.6140    2.1590 ho        1 341      0.408000
@<TRIPOS>BOND
     1    1    2 ar  
     2    1    6 ar  
     3    1   10 1   
     4    2    3 ar  
     5    2   11 1   
     6    3    4 ar  
     7    3    8 1   
     8    4    5 ar  
     9    4   12 1   
    10    5    6 ar  
    11    5    7 1   
    12    6   13 1   
    13    8    9 1   
    14    8   14 1   
    15    8   15 1   
    16    9   16 1   
@<TRIPOS>SUBSTRUCTURE
     1 341         1 TEMP              0 ****  ****    0 ROOT
