@<TRIPOS>MOLECULE
341
   16    13     1     0     0
SMALL
bcc


@<TRIPOS>ATOM
      1 C3         -1.6100   -0.0550   -1.1630 c1        1 341      0.118600
      2 C4         -0.2260   -0.1170   -1.1990 c1        1 341     -0.095500
      3 C5          0.4970   -0.1510   -0.0160 c1        1 341     -0.004100
      4 C6         -0.1650   -0.1250    1.2010 c1        1 341     -0.139500
      5 C1         -1.5490   -0.0640    1.2370 c1        1 341      0.118600
      6 C2         -2.2720   -0.0290    0.0550 c1        1 341     -0.139500
      7 F8         -2.1890   -0.0550    2.4130 f         1 341     -0.102600
      8 C9          2.0090   -0.1780   -0.0550 c3        1 341      0.139500
      9 O10         2.4960    1.1260   -0.2850 oh        1 341     -0.597800
     10 F7         -2.3080   -0.0010   -2.3050 f         1 341     -0.102600
     11 H4          0.2400   -0.1350   -2.0560 ha        1 341      0.117500
     12 H6          0.3440   -0.1490    2.0340 ha        1 341      0.100500
     13 H2         -3.2470    0.0140    0.0800 ha        1 341      0.100500
     14 H9          2.3070   -0.7690   -0.7770 h1        1 341      0.038700
     15 H9A         2.3520   -0.5080    0.8010 h1        1 341      0.038700
     16 HO10        3.3220    1.1950    0.0360 ho        1 341      0.408000
@<TRIPOS>BOND
     1    1    6 3   
     2    1   10 1   
     3    2    3 3   
     4    2   11 1   
     5    3    8 1   
     6    4    5 3   
     7    4   12 1   
     8    5    7 1   
     9    6   13 1   
    10    8    9 1   
    11    8   14 1   
    12    8   15 1   
    13    9   16 1   
@<TRIPOS>SUBSTRUCTURE
     1 341         1 TEMP              0 ****  ****    0 ROOT
