@<TRIPOS>MOLECULE
341
   16    16     1     0     0
SMALL
bcc


@<TRIPOS>ATOM
      1 C3          0.0220    0.3150    0.0410 ca        1 341      0.151400
      2 C4          1.4260    0.4070    0.0990 ca        1 341     -0.170000
      3 C5          2.0830    0.1150    1.2920 ca        1 341     -0.038300
      4 C6          1.3620   -0.2670    2.4280 ca        1 341     -0.170000
      5 C1         -0.0390   -0.3550    2.3600 ca        1 341      0.151400
      6 C2         -0.7230   -0.0660    1.1680 ca        1 341     -0.207000
      7 F8         -0.7410   -0.7250    3.4580 f         1 341     -0.135400
      8 C9          3.5720    0.1980    1.4040 c3        1 341      0.173700
      9 O10         4.1180    0.5980    0.1570 oh        1 341     -0.597800
     10 F7         -0.6200    0.5980   -1.1170 f         1 341     -0.135400
     11 H4          1.9970    0.7070   -0.7940 ha        1 341      0.163000
     12 H6          1.8770   -0.4980    3.3710 ha        1 341      0.163000
     13 H2         -1.8190   -0.1370    1.1190 ha        1 341      0.165000
     14 H9          3.9840   -0.8090    1.6940 h1        1 341      0.038700
     15 H9A         3.8490    0.9470    2.1980 h1        1 341      0.038700
     16 HO10        5.0740    0.6360    0.2810 ho        1 341      0.408000
@<TRIPOS>BOND
     1    1    2 ar  
     2    1    6 ar  
     3    1   10 1   
     4    2    3 ar  
     5    2   11 1   
     6    3    4 ar  
     7    3    8 1   
     8    4    5 ar  
     9    4   12 1   
    10    5    6 ar  
    11    5    7 1   
    12    6   13 1   
    13    8    9 1   
    14    8   14 1   
    15    8   15 1   
    16    9   16 1   
@<TRIPOS>SUBSTRUCTURE
     1 341         1 TEMP              0 ****  ****    0 ROOT
