@<TRIPOS>MOLECULE
341
   16    16     1     0     0
SMALL
bcc


@<TRIPOS>ATOM
      1 C3          0.9480   -1.1290    0.4200 ca        1 341      0.151400
      2 C4         -0.4520   -1.0670    0.2900 ca        1 341     -0.170000
      3 C5         -1.0430    0.0950   -0.2040 ca        1 341     -0.038300
      4 C6         -0.2590    1.1930   -0.5690 ca        1 341     -0.170000
      5 C1          1.1380    1.1210   -0.4360 ca        1 341      0.151400
      6 C2          1.7560   -0.0390    0.0600 ca        1 341     -0.207000
      7 F8          1.9010    2.1830   -0.7890 f         1 341     -0.135400
      8 C9         -2.5260    0.2100   -0.3610 c3        1 341      0.173700
      9 O10        -3.1410   -0.9980    0.0600 oh        1 341     -0.597800
     10 F7          1.5270   -2.2560    0.9000 f         1 341     -0.135400
     11 H4         -1.0720   -1.9300    0.5770 ha        1 341      0.163000
     12 H6         -0.7220    2.1110   -0.9590 ha        1 341      0.163000
     13 H2          2.8490   -0.0910    0.1630 ha        1 341      0.165000
     14 H9         -2.9050    1.0670    0.2630 h1        1 341      0.038700
     15 H9A        -2.7750    0.4080   -1.4410 h1        1 341      0.038700
     16 HO10       -4.0900   -0.8730   -0.0600 ho        1 341      0.408000
@<TRIPOS>BOND
     1    1    2 ar  
     2    1    6 ar  
     3    1   10 1   
     4    2    3 ar  
     5    2   11 1   
     6    3    4 ar  
     7    3    8 1   
     8    4    5 ar  
     9    4   12 1   
    10    5    6 ar  
    11    5    7 1   
    12    6   13 1   
    13    8    9 1   
    14    8   14 1   
    15    8   15 1   
    16    9   16 1   
@<TRIPOS>SUBSTRUCTURE
     1 341         1 TEMP              0 ****  ****    0 ROOT
