@<TRIPOS>MOLECULE
342
   51    47     1     0     0
SMALL
bcc


@<TRIPOS>ATOM
      1 C36         2.7210    3.3670    1.1220 c1        1 342     -0.091000
      2 C35         3.3790    3.9360    2.2210 c1        1 342      0.004000
      3 O39         2.8950    4.6460    3.3590 os        1 342     -0.217000
      4 C38         3.9970    5.0140    4.1420 c3        1 342      0.099000
      5 O37         5.1570    4.5850    3.4800 os        1 342     -0.217000
      6 C34         4.7600    3.8930    2.2990 c2        1 342      0.012000
      7 C33         5.5000    3.2820    1.2790 c2        1 342     -0.115000
      8 C32         4.8470    2.7180    0.1890 c1        1 342     -0.129000
      9 C31         3.4550    2.7610    0.1100 c1        1 342     -0.082000
     10 C27         2.7550    2.2640   -1.1370 c3        1 342     -0.027000
     11 N23         1.9520    0.6120   -0.7840 n3        1 342     -0.253000
     12 C22         0.4230    0.6090   -1.4710 c3        1 342     -0.096000
     13 C24         2.8770   -0.5370   -1.3860 c3        1 342     -0.076000
     14 C25         2.2090   -1.8990   -1.3420 c3        1 342     -0.156000
     15 C26         0.7150   -1.8920   -2.0130 c3        1 342     -0.161000
     16 C21        -0.2220   -0.7440   -1.4220 c3        1 342      0.030000
     17 O17        -1.4030   -0.7060   -2.1560 os        1 342     -0.212000
     18 C14        -2.4230   -1.3670   -1.4420 c2        1 342      0.080000
     19 C15        -2.9920   -2.5200   -1.9600 c2        1 342     -0.140000
     20 C16        -4.0820   -3.0990   -1.3290 c1        1 342     -0.111000
     21 C13        -2.9450   -0.7920   -0.2930 c1        1 342     -0.187000
     22 C12        -4.0350   -1.3710    0.3370 c1        1 342     -0.109000
     23 C11        -4.6040   -2.5250   -0.1810 c1        1 342      0.022000
     24 N3         -5.6940   -3.0510    0.3960 n2        1 342     -0.127000
     25 C4         -6.9600   -2.7150    0.1350 c1        1 342     -0.166000
     26 C5         -7.7710   -3.4500    0.9570 c1        1 342     -0.166000
     27 NFE        -6.9930   -4.2290    1.7140 n2        1 342     -0.127000
     28 C2         -5.7030   -3.9900    1.3740 c1        1 342     -0.092000
     29 H36         1.7470    3.3970    1.0670 ha        1 342      0.167000
     30 H381        4.0190    5.9920    4.2280 h2        1 342      0.112000
     31 H382        3.9390    4.5670    5.0130 h2        1 342      0.112000
     32 H33         6.4740    3.2510    1.3340 ha        1 342      0.156000
     33 H32         5.3630    2.2920   -0.5220 ha        1 342      0.138000
     34 H271        3.4080    2.1610   -1.8580 h1        1 342      0.082000
     35 H272        2.0700    2.9090   -1.4050 h1        1 342      0.082000
     36 H221       -0.1420    1.2470   -0.9900 h1        1 342      0.083500
     37 H222        0.4950    0.8920   -2.4040 h1        1 342      0.083500
     38 H241        3.0890   -0.3180   -2.3160 h1        1 342      0.079500
     39 H242        3.7090   -0.5750   -0.8720 h1        1 342      0.079500
     40 H251        2.7680   -2.5400   -1.8250 hc        1 342      0.092000
     41 H252        2.1350   -2.1840   -0.4090 hc        1 342      0.092000
     42 H261        0.8030   -1.7610   -2.9780 hc        1 342      0.097000
     43 H262        0.2920   -2.7580   -1.8490 hc        1 342      0.097000
     44 H21        -0.4360   -0.9580   -0.4920 h1        1 342      0.105000
     45 H15        -2.6250   -2.9250   -2.7690 ha        1 342      0.155000
     46 H16        -4.4830   -3.9110   -1.6930 ha        1 342      0.146000
     47 H13        -2.5450    0.0190    0.0710 ha        1 342      0.149000
     48 H12        -4.4020   -0.9670    1.1460 ha        1 342      0.144000
     49 H4         -7.2560   -2.0590   -0.5270 DU        1 342      0.186333
     50 H5         -8.7460   -3.4110    0.9860 DU        1 342      0.186333
     51 H2         -4.9180   -4.4180    1.7640 DU        1 342      0.186333
@<TRIPOS>BOND
     1    1    9 1   
     2    1   29 1   
     3    2    3 1   
     4    2    6 1   
     5    3    4 1   
     6    4    5 1   
     7    4   30 1   
     8    4   31 1   
     9    5    6 1   
    10    6    7 1   
    11    7    8 1   
    12    7   32 1   
    13    8   33 1   
    14    9   10 1   
    15   10   11 1   
    16   10   34 1   
    17   10   35 1   
    18   11   12 1   
    19   11   13 1   
    20   12   16 1   
    21   12   36 1   
    22   12   37 1   
    23   13   14 1   
    24   13   38 1   
    25   13   39 1   
    26   14   15 1   
    27   14   40 1   
    28   14   41 1   
    29   15   16 1   
    30   15   42 1   
    31   15   43 1   
    32   16   17 1   
    33   16   44 1   
    34   17   18 1   
    35   18   19 1   
    36   18   21 1   
    37   19   20 1   
    38   19   45 1   
    39   20   46 1   
    40   21   47 1   
    41   22   23 1   
    42   22   48 1   
    43   24   25 1   
    44   24   28 1   
    45   25   26 1   
    46   26   27 1   
    47   27   28 1   
@<TRIPOS>SUBSTRUCTURE
     1 342         1 TEMP              0 ****  ****    0 ROOT
