@<TRIPOS>MOLECULE
342
   51    55     1     0     0
SMALL
bcc


@<TRIPOS>ATOM
      1 C36        -1.3510   -2.9320   -4.0530 ca        1 342     -0.088000
      2 C35        -1.6460   -2.3550   -5.2700 ca        1 342      0.049100
      3 O39        -0.8890   -2.3540   -6.4380 os        1 342     -0.333900
      4 C38        -1.6440   -1.6160   -7.4250 c3        1 342      0.321200
      5 O37        -2.8760   -1.1760   -6.8060 os        1 342     -0.334900
      6 C34        -2.8520   -1.6390   -5.4940 ca        1 342      0.056100
      7 C33        -3.7970   -1.4790   -4.5030 ca        1 342     -0.116000
      8 C32        -3.4990   -2.0630   -3.2580 ca        1 342     -0.130000
      9 C31        -2.3160   -2.7690   -3.0340 ca        1 342     -0.089300
     10 C27        -2.0900   -3.4210   -1.7000 c3        1 342      0.220100
     11 N23        -0.7780   -3.1520   -1.1230 n3        1 342     -0.725600
     12 C22        -0.5080   -4.0210    0.0100 c3        1 342      0.175800
     13 C24        -0.5650   -1.7410   -0.8360 c3        1 342      0.166800
     14 C25         0.8260   -1.4590   -0.2770 c3        1 342     -0.075400
     15 C26         1.0890   -2.2850    0.9620 c3        1 342     -0.105400
     16 C21         0.8420   -3.7650    0.7080 c3        1 342      0.143100
     17 O17         1.8360   -4.3250   -0.1660 os        1 342     -0.310900
     18 C14         3.0710   -4.6070    0.3760 ca        1 342      0.127100
     19 C15         3.9960   -5.1390   -0.5460 ca        1 342     -0.167000
     20 C16         5.2710   -5.4790   -0.1290 ca        1 342     -0.108500
     21 C13         3.4420   -4.4210    1.7110 ca        1 342     -0.167000
     22 C12         4.7220   -4.7720    2.1320 ca        1 342     -0.108500
     23 C11         5.6560   -5.3040    1.2210 ca        1 342     -0.027200
     24 N3          6.9500   -5.6520    1.6460 na        1 342     -0.134000
     25 C4          7.7700   -6.6530    1.1050 cc        1 342     -0.248600
     26 C5          8.9600   -6.6280    1.8510 cd        1 342      0.291200
     27 NFE         8.8920   -5.6380    2.8330 nd        1 342     -0.664000
     28 C2          7.6820   -5.0630    2.6970 cc        1 342      0.395400
     29 H36        -0.4180   -3.4830   -3.8740 ha        1 342      0.172000
     30 H381       -1.8960   -2.3030   -8.2700 h2        1 342      0.071700
     31 H382       -1.0550   -0.7150   -7.7250 h2        1 342      0.071700
     32 H33        -4.7310   -0.9280   -4.6700 ha        1 342      0.155000
     33 H32        -4.2310   -1.9530   -2.4430 ha        1 342      0.137000
     34 H271       -2.9190   -3.1140   -0.9940 h1        1 342      0.040200
     35 H272       -2.1710   -4.5380   -1.8500 h1        1 342      0.040200
     36 H221       -0.5080   -5.0810   -0.3700 h1        1 342      0.043700
     37 H222       -1.3010   -3.9280    0.8110 h1        1 342      0.043700
     38 H241       -1.3340   -1.3450   -0.1080 h1        1 342      0.036200
     39 H242       -0.6910   -1.1810   -1.8060 h1        1 342      0.036200
     40 H251        0.8990   -0.3680   -0.0330 hc        1 342      0.056700
     41 H252        1.6010   -1.6950   -1.0520 hc        1 342      0.056700
     42 H261        2.1480   -2.1340    1.2970 hc        1 342      0.051700
     43 H262        0.4120   -1.9550    1.7930 hc        1 342      0.051700
     44 H21         0.8370   -4.3350    1.6790 h1        1 342      0.048700
     45 H15         3.6900   -5.2740   -1.5950 ha        1 342      0.150500
     46 H16         5.9870   -5.8860   -0.8610 ha        1 342      0.144000
     47 H13         2.7390   -4.0000    2.4450 ha        1 342      0.150500
     48 H12         4.9920   -4.6310    3.1900 ha        1 342      0.144000
     49 H4          7.4510   -7.2830    0.2780 h4        1 342      0.179000
     50 H5          9.8430   -7.2560    1.7370 h4        1 342      0.043100
     51 H2          7.2890   -4.2360    3.2970 h5        1 342      0.062100
@<TRIPOS>BOND
     1    1    2 ar  
     2    1    9 ar  
     3    1   29 1   
     4    2    3 1   
     5    2    6 ar  
     6    3    4 1   
     7    4    5 1   
     8    4   30 1   
     9    4   31 1   
    10    5    6 1   
    11    6    7 ar  
    12    7    8 ar  
    13    7   32 1   
    14    8    9 ar  
    15    8   33 1   
    16    9   10 1   
    17   10   11 1   
    18   10   34 1   
    19   10   35 1   
    20   11   12 1   
    21   11   13 1   
    22   12   16 1   
    23   12   36 1   
    24   12   37 1   
    25   13   14 1   
    26   13   38 1   
    27   13   39 1   
    28   14   15 1   
    29   14   40 1   
    30   14   41 1   
    31   15   16 1   
    32   15   42 1   
    33   15   43 1   
    34   16   17 1   
    35   16   44 1   
    36   17   18 1   
    37   18   19 ar  
    38   18   21 ar  
    39   19   20 ar  
    40   19   45 1   
    41   20   23 ar  
    42   20   46 1   
    43   21   22 ar  
    44   21   47 1   
    45   22   23 ar  
    46   22   48 1   
    47   23   24 1   
    48   24   25 1   
    49   24   28 1   
    50   25   26 2   
    51   25   49 1   
    52   26   27 1   
    53   26   50 1   
    54   27   28 2   
    55   28   51 1   
@<TRIPOS>SUBSTRUCTURE
     1 342         1 TEMP              0 ****  ****    0 ROOT
