@<TRIPOS>MOLECULE
343
   79    73     1     0     0
SMALL
bcc


@<TRIPOS>ATOM
      1 C49         4.4950    4.1070    4.6110 c1        1 343     -0.140000
      2 C50         5.1450    3.4100    5.6160 c1        1 343     -0.132167
      3 C51         4.7430    2.1230    5.9380 c1        1 343     -0.132167
      4 C52         3.6910    1.5340    5.2550 c1        1 343     -0.132167
      5 C53         3.0410    2.2310    4.2490 c1        1 343     -0.132167
      6 C48         3.4430    3.5180    3.9270 c1        1 343     -0.106000
      7 C47         2.7610    4.2630    2.8040 c3        1 343      0.035000
      8 O46         3.1660    3.7220    1.5670 os        1 343     -0.288000
      9 C44         2.2640    3.9640    0.5160 c2        1 343      0.379000
     10 O45         1.3510    4.7500    0.6690 o         1 343     -0.394000
     11 N43         2.4410    3.3150   -0.7370 n         1 343     -0.275000
     12 C34         1.3120    2.8760   -1.4740 c3        1 343     -0.031000
     13 C35         1.6710    2.7840   -2.9420 c3        1 343     -0.121000
     14 C36         1.2860    4.0730   -3.6390 c2        1 343     -0.129000
     15 C37         2.2610    4.8560   -4.2370 c2        1 343     -0.104000
     16 C38         1.9040    6.0160   -4.9100 c1        1 343     -0.179000
     17 C41         0.5710    6.3910   -4.9830 c1        1 343      0.058000
     18 O42         0.2140    7.5950   -5.6200 oh        1 343     -0.275000
     19 C40        -0.4040    5.6080   -4.3850 c1        1 343     -0.199000
     20 C39        -0.0470    4.4490   -3.7120 c1        1 343     -0.072000
     21 C32         0.8800    1.5140   -0.9730 c2        1 343      0.271000
     22 O33         1.7020    0.6300   -0.8320 o         1 343     -0.444000
     23 N31        -0.4930    1.2560   -0.7050 n         1 343     -0.298000
     24 C27        -0.8670    0.1210    0.0610 c3        1 343     -0.595000
     25 C28        -1.8170    0.5450    1.1590 c3        1 343     -0.110000
     26 C30        -1.5310   -0.2530    2.4080 c3        1 343     -0.201500
     27 C29        -1.6300    2.0140    1.4470 c3        1 343     -0.201500
     28 P24        -1.6860   -1.0930   -1.0140 p5        1 343      1.970000
     29 O25        -0.8090   -1.3800   -2.2080 o         1 343     -0.855500
     30 O26        -3.0090   -0.5390   -1.4830 o         1 343     -0.855500
     31 O23        -1.9320   -2.4300   -0.2070 os        1 343     -0.733000
     32 C1         -2.6140   -3.4840   -0.8470 c3        1 343      0.037000
     33 C2         -4.1060   -3.2770   -0.7060 c2        1 343      0.335000
     34 O14        -4.6480   -3.3580    0.4280 o         1 343     -0.578000
     35 O13        -4.8070   -3.0430   -1.7230 o         1 343     -0.578000
     36 C3         -2.2250   -4.7970   -0.2090 c2        1 343     -0.012000
     37 C8         -2.1980   -5.9560   -0.9690 c2        1 343     -0.140000
     38 C4         -1.8990   -4.8430    1.1370 c1        1 343     -0.119000
     39 C5         -1.5460   -6.0470    1.7240 c1        1 343     -0.132167
     40 C6         -1.5180   -7.2070    0.9640 c1        1 343     -0.132167
     41 C7         -1.8440   -7.1610   -0.3820 c1        1 343     -0.053000
     42 N9         -1.7190   -8.3290   -1.1820 n3        1 343     -0.260000
     43 C10        -2.6810   -9.3740   -1.0730 c2        1 343      0.156000
     44 N12        -2.4740  -10.3700   -0.2490 n1        1 343     -0.364000
     45 N11        -3.8670   -9.3350   -1.8580 n3        1 343     -0.361000
     46 H49         4.7780    5.0130    4.3850 ha        1 343      0.115000
     47 H50         5.8780    3.8290    6.1060 ha        1 343      0.130333
     48 H51         5.2010    1.6320    6.6460 ha        1 343      0.130333
     49 H52         3.3980    0.6340    5.4920 ha        1 343      0.130333
     50 H53         2.3000    1.8170    3.7680 ha        1 343      0.130333
     51 H471        1.7900    4.1760    2.8970 h1        1 343      0.105500
     52 H472        3.0080    5.2100    2.8430 h1        1 343      0.105500
     53 HN43        3.2800    3.1840   -1.0680 hn        1 343      0.224000
     54 H34         0.5790    3.5130   -1.3570 h1        1 343      0.141000
     55 H351        1.1890    2.0360   -3.3500 hc        1 343      0.110000
     56 H352        2.6340    2.6390   -3.0340 hc        1 343      0.110000
     57 H37         3.1970    4.5810   -4.2040 ha        1 343      0.128000
     58 H38         2.5910    6.5670   -5.3310 ha        1 343      0.129000
     59 HO42       -0.0760    7.4210   -6.4430 ho        1 343      0.214000
     60 H40        -1.3420    5.8720   -4.4360 ha        1 343      0.149000
     61 H39        -0.7350    3.8910   -3.3020 ha        1 343      0.230000
     62 HN31       -1.1320    1.8330   -1.0050 hn        1 343      0.258000
     63 H27        -0.0680   -0.2810    0.4590 h1        1 343      0.133000
     64 H28        -2.7360    0.3840    0.8740 hc        1 343      0.137000
     65 H301       -0.5640   -0.3920    2.4930 hc        1 343      0.062833
     66 H302       -1.9810   -1.1190    2.3520 hc        1 343      0.062833
     67 H303       -1.8600    0.2370    3.1920 hc        1 343      0.062833
     68 H291       -2.0500    2.2360    2.3040 hc        1 343      0.062833
     69 H292       -0.6720    2.2190    1.4890 hc        1 343      0.062833
     70 H293       -2.0450    2.5420    0.7340 hc        1 343      0.062833
     71 H1         -2.3760   -3.4990   -1.7940 h1        1 343      0.111000
     72 H8         -2.4650   -5.9300   -1.9070 ha        1 343      0.166000
     73 H4         -1.9260   -4.0290    1.6740 ha        1 343      0.144000
     74 H5         -1.3120   -6.0790    2.6690 ha        1 343      0.130333
     75 H6         -1.2630   -8.0530    1.3750 ha        1 343      0.130333
     76 HN9        -1.0090   -8.4210   -1.7470 hn        1 343      0.165000
     77 HN12       -1.7110  -10.3960    0.2550 DU        1 343      0.134000
     78 H111       -4.3730  -10.0910   -1.9600 hn        1 343      0.228500
     79 H112       -4.1040   -8.5640   -2.2900 hn        1 343      0.228500
@<TRIPOS>BOND
     1    1    6 1   
     2    1   46 1   
     3    2    3 1   
     4    2   47 1   
     5    3   48 1   
     6    4    5 1   
     7    4   49 1   
     8    5   50 1   
     9    6    7 1   
    10    7    8 1   
    11    7   51 1   
    12    7   52 1   
    13    8    9 1   
    14    9   10 1   
    15    9   11 1   
    16   11   12 1   
    17   11   53 1   
    18   12   13 1   
    19   12   21 1   
    20   12   54 1   
    21   13   14 1   
    22   13   55 1   
    23   13   56 1   
    24   14   15 1   
    25   14   20 1   
    26   15   16 1   
    27   15   57 1   
    28   16   58 1   
    29   17   18 1   
    30   17   19 1   
    31   18   59 1   
    32   19   60 1   
    33   20   61 1   
    34   21   22 1   
    35   21   23 1   
    36   23   24 1   
    37   23   62 1   
    38   24   25 1   
    39   24   28 1   
    40   24   63 1   
    41   25   26 1   
    42   25   27 1   
    43   25   64 1   
    44   26   65 1   
    45   26   66 1   
    46   26   67 1   
    47   27   68 1   
    48   27   69 1   
    49   27   70 1   
    50   28   29 1   
    51   28   30 1   
    52   28   31 1   
    53   31   32 1   
    54   32   33 1   
    55   32   36 1   
    56   32   71 1   
    57   33   34 1   
    58   33   35 1   
    59   36   37 1   
    60   36   38 1   
    61   37   41 1   
    62   37   72 1   
    63   38   73 1   
    64   39   40 1   
    65   39   74 1   
    66   40   75 1   
    67   41   42 1   
    68   42   43 1   
    69   42   76 1   
    70   43   44 1   
    71   43   45 1   
    72   45   78 1   
    73   45   79 1   
@<TRIPOS>SUBSTRUCTURE
     1 343         1 TEMP              0 ****  ****    0 ROOT
