@<TRIPOS>MOLECULE
343
   83    85     1     0     0
SMALL
bcc


@<TRIPOS>ATOM
      1 C49        -1.7560   -3.3150   -0.8720 ca        1 343     -0.107000
      2 C50        -0.8610   -4.3640   -1.0780 ca        1 343     -0.131000
      3 C51        -0.0900   -4.8430   -0.0180 ca        1 343     -0.112000
      4 C52        -0.2220   -4.2780    1.2510 ca        1 343     -0.131000
      5 C53        -1.1220   -3.2350    1.4620 ca        1 343     -0.107000
      6 C48        -1.8900   -2.7470    0.3990 ca        1 343     -0.143300
      7 C47        -2.7830   -1.5760    0.6150 c3        1 343      0.195700
      8 O46        -4.0570   -1.7390   -0.0550 os        1 343     -0.399900
      9 C44        -5.0600   -2.3330    0.6420 c         1 343      0.741100
     10 O45        -4.8940   -2.7400    1.8080 o         1 343     -0.625000
     11 N43        -6.2470   -2.4910   -0.0970 n         1 343     -0.529900
     12 C34        -7.4900   -2.4170    0.6310 c3        1 343      0.036700
     13 C35        -8.5180   -1.4380    0.0090 c3        1 343     -0.031100
     14 C36        -7.9530   -0.0700   -0.0910 ca        1 343     -0.186300
     15 C37        -7.3960    0.3750   -1.3000 ca        1 343     -0.079500
     16 C38        -6.8930    1.6620   -1.4190 ca        1 343     -0.178500
     17 C41        -6.9520    2.5270   -0.3080 ca        1 343      0.163100
     18 O42        -6.4310    3.7790   -0.4870 oh        1 343     -0.476100
     19 C40        -7.5170    2.0970    0.9040 ca        1 343     -0.178500
     20 C39        -8.0150    0.8020    1.0020 ca        1 343     -0.079500
     21 C32        -8.1980   -3.7780    0.7460 c         1 343      0.538100
     22 O33        -9.4030   -3.9450    0.8400 o         1 343     -0.411100
     23 N31        -7.3720   -5.0450    0.7790 n4        1 343     -0.644800
     24 C27        -6.6690   -5.2570    2.0640 c3        1 343     -0.173700
     25 C28        -7.5490   -5.6720    3.2580 c3        1 343     -0.056700
     26 C30        -7.8770   -4.4620    4.1140 c3        1 343     -0.116600
     27 C29        -8.8330   -6.3950    2.8990 c3        1 343     -0.116600
     28 P24        -5.4110   -6.3560    1.8570 p5        1 343      1.561300
     29 O25        -4.4750   -6.3010    3.1230 oh        1 343     -0.762400
     30 O26        -4.8020   -6.2460    0.5400 o         1 343     -0.838300
     31 O23        -6.1000   -7.8220    1.9720 os        1 343     -0.573200
     32 C1         -5.9230   -8.7540    0.9300 c3        1 343      0.197400
     33 C2         -7.2030   -8.7890    0.0990 c         1 343      0.642100
     34 O14        -8.0080   -7.8600   -0.0500 o         1 343     -0.587000
     35 O13        -7.4230   -9.9320   -0.5850 oh        1 343     -0.583100
     36 C3         -5.5760  -10.1010    1.5020 ca        1 343     -0.091300
     37 C8         -5.0660  -11.0780    0.6370 ca        1 343     -0.068000
     38 C4         -5.7290  -10.3790    2.8620 ca        1 343     -0.050000
     39 C5         -5.3600  -11.6300    3.3660 ca        1 343     -0.102000
     40 C6         -4.8420  -12.6090    2.5250 ca        1 343     -0.125000
     41 C7         -4.7000  -12.3330    1.1500 ca        1 343     -0.054400
     42 N9         -4.1560  -13.3440    0.2520 n4        1 343     -0.600200
     43 C10        -5.2500  -13.9660   -0.6880 c2        1 343      0.042000
     44 N12        -5.3360  -13.7780   -1.8860 n1        1 343     -0.139000
     45 N11        -6.1650  -14.8260    0.1990 n4        1 343     -0.784400
     46 H49        -2.3550   -2.9240   -1.7090 ha        1 343      0.140000
     47 H50        -0.7520   -4.8030   -2.0810 ha        1 343      0.143000
     48 H51         0.6320   -5.6560   -0.1860 ha        1 343      0.141000
     49 H52         0.4000   -4.6420    2.0830 ha        1 343      0.143000
     50 H53        -1.2130   -2.7810    2.4620 ha        1 343      0.140000
     51 H471       -2.9510   -1.3710    1.7050 h1        1 343      0.092700
     52 H472       -2.3770   -0.6620    0.0950 h1        1 343      0.092700
     53 HN43       -3.5690   -5.9980    3.0220 ho        1 343      0.524000
     54 H34        -7.3040   -2.1070    1.7110 h1        1 343      0.123700
     55 H351       -9.4300   -1.4390    0.6660 hc        1 343      0.083700
     56 H352       -8.8290   -1.8120   -1.0030 hc        1 343      0.083700
     57 H37        -7.3760   -0.2920   -2.1760 ha        1 343      0.133000
     58 H38        -6.4600    2.0250   -2.3630 ha        1 343      0.161500
     59 HO42       -6.5890    4.3000    0.3170 ho        1 343      0.436000
     60 H40        -7.5750    2.7820    1.7630 ha        1 343      0.161500
     61 H39        -8.4730    0.4690    1.9460 ha        1 343      0.133000
     62 HN31       -8.0010   -5.8550    0.6070 hn        1 343      0.487800
     63 H27        -6.2110   -4.2450    2.3550 hx        1 343      0.191700
     64 H28        -6.9100   -6.3740    3.8740 hc        1 343      0.077700
     65 H301       -8.4990   -4.7740    4.9890 hc        1 343      0.062700
     66 H302       -8.4560   -3.7120    3.5220 hc        1 343      0.062700
     67 H303       -6.9470   -3.9790    4.5000 hc        1 343      0.062700
     68 H291       -9.3010   -6.7820    3.8400 hc        1 343      0.062700
     69 H292       -8.6530   -7.2670    2.2240 hc        1 343      0.062700
     70 H293       -9.5690   -5.7040    2.4180 hc        1 343      0.062700
     71 H1         -5.0950   -8.3990    0.2330 h1        1 343      0.134700
     72 H8         -4.9800  -10.8550   -0.4420 ha        1 343      0.177000
     73 H4         -6.1340   -9.6070    3.5400 ha        1 343      0.180000
     74 H5         -5.4710  -11.8390    4.4440 ha        1 343      0.178000
     75 H6         -4.5280  -13.5760    2.9520 ha        1 343      0.154000
     76 HN9        -3.4800  -12.8960   -0.3830 hn        1 343      0.452300
     77 HN12       -8.2290   -9.8440   -1.1310 ho        1 343      0.479000
     78 H111       -6.9840  -15.0610   -0.3740 hn        1 343      0.450800
     79 H112       -5.6980  -15.6940    0.4670 hn        1 343      0.450800
     80 H432       -6.2530   -2.0070   -0.9780 hn        1 343      0.343500
     81 H312       -6.6590   -5.0130    0.0260 hn        1 343      0.487800
     82 H92        -3.6590  -14.0570    0.7880 hn        1 343      0.452300
     83 H113       -6.4780  -14.3310    1.0340 hn        1 343      0.450800
@<TRIPOS>BOND
     1    1    2 ar  
     2    1    6 ar  
     3    1   46 1   
     4    2    3 ar  
     5    2   47 1   
     6    3    4 ar  
     7    3   48 1   
     8    4    5 ar  
     9    4   49 1   
    10    5    6 ar  
    11    5   50 1   
    12    6    7 1   
    13    7    8 1   
    14    7   51 1   
    15    7   52 1   
    16    8    9 1   
    17    9   10 2   
    18    9   11 1   
    19   11   12 1   
    20   11   80 1   
    21   12   13 1   
    22   12   21 1   
    23   12   54 1   
    24   13   14 1   
    25   13   55 1   
    26   13   56 1   
    27   14   15 ar  
    28   14   20 ar  
    29   15   16 ar  
    30   15   57 1   
    31   16   17 ar  
    32   16   58 1   
    33   17   18 1   
    34   17   19 ar  
    35   18   59 1   
    36   19   20 ar  
    37   19   60 1   
    38   20   61 1   
    39   21   22 2   
    40   21   23 1   
    41   23   24 1   
    42   23   62 1   
    43   23   81 1   
    44   24   25 1   
    45   24   28 1   
    46   24   63 1   
    47   25   26 1   
    48   25   27 1   
    49   25   64 1   
    50   26   65 1   
    51   26   66 1   
    52   26   67 1   
    53   27   68 1   
    54   27   69 1   
    55   27   70 1   
    56   28   29 1   
    57   28   30 2   
    58   28   31 1   
    59   29   53 1   
    60   31   32 1   
    61   32   33 1   
    62   32   36 1   
    63   32   71 1   
    64   33   34 2   
    65   33   35 1   
    66   35   77 1   
    67   36   37 ar  
    68   36   38 ar  
    69   37   41 ar  
    70   37   72 1   
    71   38   39 ar  
    72   38   73 1   
    73   39   40 ar  
    74   39   74 1   
    75   40   41 ar  
    76   40   75 1   
    77   41   42 1   
    78   42   43 1   
    79   42   76 1   
    80   42   82 1   
    81   43   44 2   
    82   43   45 1   
    83   45   78 1   
    84   45   79 1   
    85   45   83 1   
@<TRIPOS>SUBSTRUCTURE
     1 343         1 TEMP              0 ****  ****    0 ROOT
