@<TRIPOS>MOLECULE
343
   82    84     1     0     0
SMALL
bcc


@<TRIPOS>ATOM
      1 C49        -1.0830   -1.6680    0.7970 ca        1 343     -0.107500
      2 C50         0.2720   -1.9840    0.7120 ca        1 343     -0.131000
      3 C51         1.1100   -1.7700    1.8070 ca        1 343     -0.114000
      4 C52         0.5900   -1.2450    2.9900 ca        1 343     -0.131000
      5 C53        -0.7660   -0.9350    3.0830 ca        1 343     -0.107500
      6 C48        -1.6060   -1.1410    1.9820 ca        1 343     -0.114300
      7 C47        -3.0420   -0.7550    2.0740 c3        1 343      0.196700
      8 O46        -3.8080   -1.8650    1.5390 os        1 343     -0.424900
      9 C44        -5.1590   -1.7870    1.7470 c         1 343      0.724100
     10 O45        -5.6490   -0.8240    2.3560 o         1 343     -0.562000
     11 N43        -5.8430   -2.9130    1.2780 ns        1 343     -0.548900
     12 C34        -7.2690   -2.8250    1.1360 c3        1 343      0.052700
     13 C35        -7.8110   -3.3230   -0.2190 c3        1 343     -0.047100
     14 C36        -7.3850   -2.4150   -1.3150 ca        1 343     -0.161300
     15 C37        -6.2590   -2.7300   -2.0890 ca        1 343     -0.078500
     16 C38        -5.8570   -1.9000   -3.1270 ca        1 343     -0.182000
     17 C41        -6.5960   -0.7330   -3.3950 ca        1 343      0.150100
     18 O42        -6.1480    0.0460   -4.4310 oh        1 343     -0.485100
     19 C40        -7.7260   -0.4080   -2.6290 ca        1 343     -0.182000
     20 C39        -8.1130   -1.2530   -1.5940 ca        1 343     -0.078500
     21 C32        -7.9800   -3.6270    2.2490 c         1 343      0.529100
     22 O33        -8.8040   -3.1860    3.0340 o         1 343     -0.415100
     23 N31        -7.6860   -5.1000    2.3390 ny        1 343     -0.637800
     24 C27        -6.5500   -5.4320    3.2290 c3        1 343     -0.120700
     25 C28        -6.9230   -6.1370    4.5480 c3        1 343     -0.059700
     26 C30        -7.0190   -5.1230    5.6720 c3        1 343     -0.117100
     27 C29        -8.1940   -6.9660    4.5130 c3        1 343     -0.117100
     28 P24        -5.3850   -6.3480    2.3990 p5        1 343      1.547300
     29 O25        -4.1270   -6.4560    3.3550 oh        1 343     -0.765400
     30 O26        -5.0970   -5.7630    1.0910 o         1 343     -0.854300
     31 O23        -5.9730   -7.8310    2.3370 os        1 343     -0.576200
     32 C1         -6.2820   -8.3970    1.0710 c3        1 343      0.093400
     33 C2         -7.8270   -8.3560    0.8020 c         1 343      0.959600
     34 O14        -8.4610   -7.3060    1.1020 o         1 343     -0.859300
     35 O13        -8.3690   -9.3450    0.2360 o         1 343     -0.859300
     36 C3         -5.7820   -9.8090    1.0230 ca        1 343     -0.057300
     37 C8         -6.0290  -10.5200   -0.1550 ca        1 343     -0.141000
     38 C4         -5.1870  -10.4560    2.1090 ca        1 343     -0.088000
     39 C5         -4.8780  -11.8140    2.0240 ca        1 343     -0.119000
     40 C6         -5.2240  -12.5590    0.8980 ca        1 343     -0.101000
     41 C7         -5.8420  -11.9140   -0.1930 ca        1 343      0.035600
     42 N9         -6.3050  -12.6900   -1.2900 nu        1 343     -0.722600
     43 C10        -7.5860  -12.4640   -1.8450 c2        1 343      0.722100
     44 N12        -8.0880  -12.9080   -2.9550 n2        1 343     -0.805100
     45 N11        -8.5640  -11.6920   -0.9930 nz        1 343     -0.809600
     46 H49        -1.7490   -1.8340   -0.0630 ha        1 343      0.138000
     47 H50         0.6810   -2.3950   -0.2230 ha        1 343      0.139500
     48 H51         2.1810   -2.0110    1.7360 ha        1 343      0.140000
     49 H52         1.2500   -1.0720    3.8530 ha        1 343      0.139500
     50 H53        -1.1730   -0.5210    4.0180 ha        1 343      0.138000
     51 H471       -3.3650   -0.5630    3.1310 h1        1 343      0.071200
     52 H472       -3.2680    0.1450    1.4430 h1        1 343      0.071200
     53 HN43       -3.2650   -6.2740    2.9780 ho        1 343      0.507000
     54 H34        -7.6130   -1.7510    1.3010 h1        1 343      0.141700
     55 H351       -7.4500   -4.3650   -0.4320 hc        1 343      0.074200
     56 H352       -8.9330   -3.3500   -0.1560 hc        1 343      0.074200
     57 H37        -5.6880   -3.6490   -1.8780 ha        1 343      0.138500
     58 H38        -4.9770   -2.1370   -3.7420 ha        1 343      0.154000
     59 HO42       -6.7400    0.8100   -4.5170 ho        1 343      0.430000
     60 H40        -8.3010    0.5040   -2.8460 ha        1 343      0.154000
     61 H39        -9.0020   -1.0040   -0.9950 ha        1 343      0.138500
     62 HN31       -8.5460   -5.5930    2.6600 hn        1 343      0.488300
     63 H27        -6.0650   -4.4500    3.5340 hx        1 343      0.147700
     64 H28        -6.0600   -6.8340    4.7710 hc        1 343      0.080700
     65 H301       -6.0410   -4.6060    5.8280 hc        1 343      0.061033
     66 H302       -7.7980   -4.3550    5.4440 hc        1 343      0.061033
     67 H303       -7.2980   -5.6380    6.6230 hc        1 343      0.061033
     68 H291       -8.2610   -7.6100    3.5990 hc        1 343      0.061033
     69 H292       -8.2050   -7.6390    5.4070 hc        1 343      0.061033
     70 H293       -9.1030   -6.3170    4.5730 hc        1 343      0.061033
     71 H1         -5.7820   -7.7800    0.2650 h1        1 343      0.084700
     72 H8         -6.4240   -9.9730   -1.0280 ha        1 343      0.146000
     73 H4         -4.9810   -9.8990    3.0370 ha        1 343      0.159000
     74 H5         -4.3820  -12.3150    2.8700 ha        1 343      0.155000
     75 H6         -5.0230  -13.6410    0.8710 ha        1 343      0.156000
     76 HN9        -5.6010  -12.9660   -1.9460 hn        1 343      0.455800
     77 HN12       -7.4980  -13.4280   -3.5680 hn        1 343      0.459400
     78 H111       -9.4850  -12.1380   -1.0200 hn        1 343      0.491133
     79 H112       -8.2440  -11.6010   -0.0130 hn        1 343      0.491133
     80 H432       -5.3560   -3.4950    0.6200 hn        1 343      0.362500
     81 H312       -7.4990   -5.4740    1.3830 hn        1 343      0.488300
     82 H113       -8.6420  -10.7210   -1.3510 hn        1 343      0.491133
@<TRIPOS>BOND
     1    1    2 ar  
     2    1    6 ar  
     3    1   46 1   
     4    2    3 ar  
     5    2   47 1   
     6    3    4 ar  
     7    3   48 1   
     8    4    5 ar  
     9    4   49 1   
    10    5    6 ar  
    11    5   50 1   
    12    6    7 1   
    13    7    8 1   
    14    7   51 1   
    15    7   52 1   
    16    8    9 1   
    17    9   10 2   
    18    9   11 1   
    19   11   12 1   
    20   11   80 1   
    21   12   13 1   
    22   12   21 1   
    23   12   54 1   
    24   13   14 1   
    25   13   55 1   
    26   13   56 1   
    27   14   15 ar  
    28   14   20 ar  
    29   15   16 ar  
    30   15   57 1   
    31   16   17 ar  
    32   16   58 1   
    33   17   18 1   
    34   17   19 ar  
    35   18   59 1   
    36   19   20 ar  
    37   19   60 1   
    38   20   61 1   
    39   21   22 2   
    40   21   23 1   
    41   23   24 1   
    42   23   62 1   
    43   23   81 1   
    44   24   25 1   
    45   24   28 1   
    46   24   63 1   
    47   25   26 1   
    48   25   27 1   
    49   25   64 1   
    50   26   65 1   
    51   26   66 1   
    52   26   67 1   
    53   27   68 1   
    54   27   69 1   
    55   27   70 1   
    56   28   29 1   
    57   28   30 2   
    58   28   31 1   
    59   29   53 1   
    60   31   32 1   
    61   32   33 1   
    62   32   36 1   
    63   32   71 1   
    64   33   34 1   
    65   33   35 1   
    66   36   37 ar  
    67   36   38 ar  
    68   37   41 ar  
    69   37   72 1   
    70   38   39 ar  
    71   38   73 1   
    72   39   40 ar  
    73   39   74 1   
    74   40   41 ar  
    75   40   75 1   
    76   41   42 1   
    77   42   43 1   
    78   42   76 1   
    79   43   44 2   
    80   43   45 1   
    81   44   77 1   
    82   45   78 1   
    83   45   79 1   
    84   45   82 1   
@<TRIPOS>SUBSTRUCTURE
     1 343         1 TEMP              0 ****  ****    0 ROOT
