@<TRIPOS>MOLECULE
343
   79    81     1     0     0
SMALL
bcc


@<TRIPOS>ATOM
      1 C49        -6.4510   -3.0460   -2.4650 ca        1 343     -0.114000
      2 C50        -7.0640   -4.2290   -2.8750 ca        1 343     -0.136000
      3 C51        -8.3990   -4.2250   -3.2780 ca        1 343     -0.138000
      4 C52        -9.1250   -3.0340   -3.2660 ca        1 343     -0.136000
      5 C53        -8.5190   -1.8500   -2.8520 ca        1 343     -0.114000
      6 C48        -7.1770   -1.8500   -2.4520 ca        1 343     -0.081300
      7 C47        -6.5470   -0.5570   -2.0540 c3        1 343      0.193700
      8 O46        -5.4510   -0.8500   -1.1730 os        1 343     -0.447900
      9 C44        -4.7130    0.2580   -0.7770 c         1 343      0.727100
     10 O45        -5.0300    1.3630   -1.2550 o         1 343     -0.605000
     11 N43        -3.7800   -0.0400    0.1970 n         1 343     -0.475900
     12 C34        -2.6290    0.8380    0.3500 c3        1 343      0.003700
     13 C35        -2.4000    1.2440    1.8150 c3        1 343     -0.044100
     14 C36        -3.5620    1.8640    2.5030 ca        1 343     -0.079300
     15 C37        -3.6420    1.7540    3.8990 ca        1 343     -0.093000
     16 C38        -4.6810    2.3510    4.6060 ca        1 343     -0.185000
     17 C41        -5.6590    3.0710    3.9060 ca        1 343      0.096100
     18 O42        -6.7220    3.6840    4.5400 oh        1 343     -0.513100
     19 C40        -5.5980    3.1920    2.5110 ca        1 343     -0.185000
     20 C39        -4.5490    2.5880    1.8220 ca        1 343     -0.093000
     21 C32        -1.3150    0.1330   -0.1280 c         1 343      0.625100
     22 O33        -1.3070   -1.1160   -0.2460 o         1 343     -0.667100
     23 N31        -0.2440    0.9410   -0.3200 n         1 343     -0.478900
     24 C27         1.0770    0.5020   -0.6700 c3        1 343     -0.106500
     25 C28         1.3630    0.3680   -2.1640 c3        1 343     -0.066700
     26 C30         1.1980   -1.0760   -2.6050 c3        1 343     -0.086600
     27 C29         0.5210    1.2580   -3.0600 c3        1 343     -0.086600
     28 P24         2.1730    1.6910    0.0810 p5        1 343      1.320600
     29 O25         2.2280    1.3630    1.5240 o         1 343     -0.848500
     30 O26         1.6580    3.0000   -0.3920 o         1 343     -0.848500
     31 O23         3.6030    1.2760   -0.6080 os        1 343     -0.569200
     32 C1          4.6920    1.0200    0.2320 c3        1 343      0.098400
     33 C2          5.9380    1.9150   -0.1000 c         1 343      0.916600
     34 O14         5.8790    2.8000   -0.9850 o         1 343     -0.843800
     35 O13         6.9830    1.6930    0.5960 o         1 343     -0.843800
     36 C3          5.1380   -0.4130    0.1280 ca        1 343     -0.021300
     37 C8          6.1160   -0.8380    1.0360 ca        1 343     -0.138000
     38 C4          4.7230   -1.2870   -0.8820 ca        1 343     -0.121000
     39 C5          5.3040   -2.5480   -0.9950 ca        1 343     -0.154000
     40 C6          6.3400   -2.9410   -0.1500 ca        1 343     -0.142000
     41 C7          6.7740   -2.0680    0.8650 ca        1 343      0.026600
     42 N9          7.8920   -2.4310    1.6880 nh        1 343     -0.698600
     43 C10         9.1460   -1.8000    1.2220 c2        1 343      0.749100
     44 N12        10.1920   -2.5230    0.8980 n2        1 343     -0.897100
     45 N11         9.2200   -0.3900    1.2280 nh        1 343     -0.922800
     46 H49        -5.3980   -3.0430   -2.1410 ha        1 343      0.145000
     47 H50        -6.4890   -5.1670   -2.8800 ha        1 343      0.125500
     48 H51        -8.8790   -5.1590   -3.6030 ha        1 343      0.121000
     49 H52       -10.1780   -3.0290   -3.5820 ha        1 343      0.125500
     50 H53        -9.0940   -0.9120   -2.8380 ha        1 343      0.145000
     51 H471       -6.1550   -0.0130   -2.9560 h1        1 343      0.061700
     52 H472       -7.2740    0.1070   -1.5140 h1        1 343      0.061700
     53 HN43       -3.5630   -1.0140    0.3070 hn        1 343      0.332500
     54 H34        -2.8000    1.7690   -0.2700 h1        1 343      0.090700
     55 H351       -2.0610    0.3390    2.3900 hc        1 343      0.085700
     56 H352       -1.5470    1.9810    1.8300 hc        1 343      0.085700
     57 H37        -2.8670    1.1930    4.4430 ha        1 343      0.149000
     58 H38        -4.7320    2.2640    5.6990 ha        1 343      0.130000
     59 HO42       -6.6030    3.5570    5.4920 ho        1 343      0.407000
     60 H40        -6.3730    3.7580    1.9780 ha        1 343      0.130000
     61 H39        -4.5120    2.6780    0.7220 ha        1 343      0.149000
     62 HN31       -0.3550    1.9380   -0.3250 hn        1 343      0.340500
     63 H27         1.2540   -0.4990   -0.1860 h1        1 343      0.086700
     64 H28         2.4450    0.6640   -2.3100 hc        1 343      0.092700
     65 H301        0.1750   -1.4430   -2.3420 hc        1 343      0.024367
     66 H302        1.3440   -1.1710   -3.7080 hc        1 343      0.024367
     67 H303        1.9460   -1.7270   -2.0920 hc        1 343      0.024367
     68 H291        0.5750    2.3250   -2.7320 hc        1 343      0.024367
     69 H292        0.8990    1.1940   -4.1100 hc        1 343      0.024367
     70 H293       -0.5470    0.9330   -3.0590 hc        1 343      0.024367
     71 H1          4.4030    1.2380    1.3050 h1        1 343      0.078700
     72 H8          6.4050   -0.1380    1.8410 ha        1 343      0.165000
     73 H4          3.9500   -0.9540   -1.5930 ha        1 343      0.147000
     74 H5          4.9600   -3.2360   -1.7810 ha        1 343      0.102000
     75 H6          6.8210   -3.9180   -0.2870 ha        1 343      0.111000
     76 HN9         7.7170   -2.1360    2.6350 hn        1 343      0.368800
     77 HN12       10.0640   -3.5050    1.0110 hn        1 343      0.377400
     78 H111        8.3570    0.1120    1.0780 hn        1 343      0.433800
     79 H112        9.9760   -0.0110    0.7020 hn        1 343      0.433800
@<TRIPOS>BOND
     1    1    2 ar  
     2    1    6 ar  
     3    1   46 1   
     4    2    3 ar  
     5    2   47 1   
     6    3    4 ar  
     7    3   48 1   
     8    4    5 ar  
     9    4   49 1   
    10    5    6 ar  
    11    5   50 1   
    12    6    7 1   
    13    7    8 1   
    14    7   51 1   
    15    7   52 1   
    16    8    9 1   
    17    9   10 2   
    18    9   11 1   
    19   11   12 1   
    20   11   53 1   
    21   12   13 1   
    22   12   21 1   
    23   12   54 1   
    24   13   14 1   
    25   13   55 1   
    26   13   56 1   
    27   14   15 ar  
    28   14   20 ar  
    29   15   16 ar  
    30   15   57 1   
    31   16   17 ar  
    32   16   58 1   
    33   17   18 1   
    34   17   19 ar  
    35   18   59 1   
    36   19   20 ar  
    37   19   60 1   
    38   20   61 1   
    39   21   22 2   
    40   21   23 1   
    41   23   24 1   
    42   23   62 1   
    43   24   25 1   
    44   24   28 1   
    45   24   63 1   
    46   25   26 1   
    47   25   27 1   
    48   25   64 1   
    49   26   65 1   
    50   26   66 1   
    51   26   67 1   
    52   27   68 1   
    53   27   69 1   
    54   27   70 1   
    55   28   29 1   
    56   28   30 1   
    57   28   31 1   
    58   31   32 1   
    59   32   33 1   
    60   32   36 1   
    61   32   71 1   
    62   33   34 1   
    63   33   35 1   
    64   36   37 ar  
    65   36   38 ar  
    66   37   41 ar  
    67   37   72 1   
    68   38   39 ar  
    69   38   73 1   
    70   39   40 ar  
    71   39   74 1   
    72   40   41 ar  
    73   40   75 1   
    74   41   42 1   
    75   42   43 1   
    76   42   76 1   
    77   43   44 2   
    78   43   45 1   
    79   44   77 1   
    80   45   78 1   
    81   45   79 1   
@<TRIPOS>SUBSTRUCTURE
     1 343         1 TEMP              0 ****  ****    0 ROOT
