@<TRIPOS>MOLECULE
343
   82    84     1     0     0
SMALL
bcc


@<TRIPOS>ATOM
      1 C49        -1.0780   -1.2510    0.9180 ca        1 343     -0.106500
      2 C50         0.3010   -1.4450    0.8500 ca        1 343     -0.130500
      3 C51         1.1030   -1.1470    1.9520 ca        1 343     -0.113000
      4 C52         0.5250   -0.6610    3.1250 ca        1 343     -0.130500
      5 C53        -0.8540   -0.4740    3.2000 ca        1 343     -0.106500
      6 C48        -1.6600   -0.7630    2.0930 ca        1 343     -0.112300
      7 C47        -3.1250   -0.5070    2.1670 c3        1 343      0.198700
      8 O46        -3.7830   -1.6880    1.6370 os        1 343     -0.422900
      9 C44        -5.1460   -1.6940    1.7740 c         1 343      0.722100
     10 O45        -5.7320   -0.7340    2.2940 o         1 343     -0.561000
     11 N43        -5.7270   -2.8910    1.3380 n         1 343     -0.542900
     12 C34        -7.1390   -2.8920    1.0720 c3        1 343      0.054700
     13 C35        -7.5300   -3.5360   -0.2730 c3        1 343     -0.053100
     14 C36        -7.1330   -2.6570   -1.4030 ca        1 343     -0.160300
     15 C37        -5.9430   -2.9090   -2.1010 ca        1 343     -0.079000
     16 C38        -5.5650   -2.1070   -3.1690 ca        1 343     -0.182000
     17 C41        -6.3930   -1.0330   -3.5460 ca        1 343      0.149100
     18 O42        -5.9650   -0.2770   -4.6070 oh        1 343     -0.486100
     19 C40        -7.5870   -0.7720   -2.8560 ca        1 343     -0.182000
     20 C39        -7.9490   -1.5890   -1.7890 ca        1 343     -0.079000
     21 C32        -7.9010   -3.6190    2.2010 c         1 343      0.530100
     22 O33        -8.7110   -3.1140    2.9610 o         1 343     -0.414100
     23 N31        -7.6860   -5.1030    2.3490 n4        1 343     -0.636800
     24 C27        -6.5500   -5.4630    3.2290 c3        1 343     -0.129700
     25 C28        -6.9330   -6.1680    4.5430 c3        1 343     -0.056700
     26 C30        -7.0010   -5.1620    5.6760 c3        1 343     -0.118600
     27 C29        -8.2180   -6.9740    4.5110 c3        1 343     -0.118600
     28 P24        -5.3990   -6.3830    2.3790 p5        1 343      1.558300
     29 O25        -4.1780   -6.6120    3.3620 oh        1 343     -0.757400
     30 O26        -5.1800   -5.7860    1.0660 o         1 343     -0.831300
     31 O23        -5.9320   -7.8890    2.3130 os        1 343     -0.608200
     32 C1         -6.3350   -8.4400    1.0670 c3        1 343      0.097400
     33 C2         -7.8960   -8.4180    0.9120 c         1 343      0.956600
     34 O14        -8.5120   -7.3560    1.2090 o         1 343     -0.858300
     35 O13        -8.4740   -9.4320    0.4330 o         1 343     -0.858300
     36 C3         -5.8190   -9.8420    0.9520 ca        1 343     -0.053300
     37 C8         -6.1600  -10.5390   -0.2120 ca        1 343     -0.140000
     38 C4         -5.1190  -10.4970    1.9670 ca        1 343     -0.093000
     39 C5         -4.7940  -11.8470    1.8300 ca        1 343     -0.116000
     40 C6         -5.2250  -12.5780    0.7250 ca        1 343     -0.102000
     41 C7         -5.9510  -11.9270   -0.2930 ca        1 343      0.040600
     42 N9         -6.4990  -12.6940   -1.3580 nh        1 343     -0.724600
     43 C10        -7.8210  -12.4680   -1.8040 c2        1 343      0.722100
     44 N12        -8.4030  -12.8770   -2.8880 n2        1 343     -0.803100
     45 N11        -8.7390  -11.7430   -0.8490 n4        1 343     -0.809600
     46 H49        -1.7170   -1.4850    0.0530 ha        1 343      0.136500
     47 H50         0.7550   -1.8280   -0.0750 ha        1 343      0.139000
     48 H51         2.1920   -1.2940    1.8950 ha        1 343      0.139000
     49 H52         1.1580   -0.4250    3.9930 ha        1 343      0.139000
     50 H53        -1.3060   -0.0930    4.1280 ha        1 343      0.136500
     51 H471       -3.4760   -0.3380    3.2190 h1        1 343      0.069700
     52 H472       -3.4240    0.3650    1.5270 h1        1 343      0.069700
     53 HN43       -5.1630   -3.4720    0.7420 hn        1 343      0.360500
     54 H34        -7.5460   -1.8270    1.1070 h1        1 343      0.139700
     55 H351       -8.6420   -3.6920   -0.2790 hc        1 343      0.076700
     56 H352       -7.0330   -4.5400   -0.3870 hc        1 343      0.076700
     57 H37        -5.3020   -3.7550   -1.8040 ha        1 343      0.140000
     58 H38        -4.6350   -2.2940   -3.7250 ha        1 343      0.154000
     59 HO42       -6.6150    0.4240   -4.7650 ho        1 343      0.429000
     60 H40        -8.2300    0.0670   -3.1570 ha        1 343      0.154000
     61 H39        -8.8870   -1.3890   -1.2490 ha        1 343      0.140000
     62 HN31       -8.5630   -5.5300    2.7100 hn        1 343      0.486800
     63 H27        -6.0440   -4.4920    3.5390 hx        1 343      0.152700
     64 H28        -6.0830   -6.8840    4.7580 hc        1 343      0.064700
     65 H301       -7.7670   -4.3780    5.4600 hc        1 343      0.061867
     66 H302       -7.2840   -5.6790    6.6250 hc        1 343      0.061867
     67 H303       -6.0120   -4.6650    5.8290 hc        1 343      0.061867
     68 H291       -8.2340   -7.6570    5.3970 hc        1 343      0.061867
     69 H292       -9.1140   -6.3100    4.5880 hc        1 343      0.061867
     70 H293       -8.3070   -7.6050    3.5890 hc        1 343      0.061867
     71 H1         -5.9050   -7.7990    0.2390 h1        1 343      0.085700
     72 H8         -6.6400   -9.9840   -1.0360 ha        1 343      0.146000
     73 H4         -4.8420   -9.9540    2.8830 ha        1 343      0.145000
     74 H5         -4.2150  -12.3530    2.6190 ha        1 343      0.154000
     75 H6         -5.0070  -13.6560    0.6600 ha        1 343      0.157000
     76 HN9        -5.8490  -12.9630   -2.0700 hn        1 343      0.456800
     77 HN12       -7.8560  -13.3630   -3.5660 hn        1 343      0.459400
     78 H111       -9.6510  -12.2080   -0.8150 hn        1 343      0.491467
     79 H112       -8.8640  -10.7630   -1.1670 hn        1 343      0.491467
     80 H432       -3.9210   -7.5130    3.5620 ho        1 343      0.505000
     81 H312       -7.5410   -5.5270    1.4070 hn        1 343      0.486800
     82 H113       -8.3400  -11.6780    0.1030 hn        1 343      0.491467
@<TRIPOS>BOND
     1    1    2 ar  
     2    1    6 ar  
     3    1   46 1   
     4    2    3 ar  
     5    2   47 1   
     6    3    4 ar  
     7    3   48 1   
     8    4    5 ar  
     9    4   49 1   
    10    5    6 ar  
    11    5   50 1   
    12    6    7 1   
    13    7    8 1   
    14    7   51 1   
    15    7   52 1   
    16    8    9 1   
    17    9   10 2   
    18    9   11 1   
    19   11   12 1   
    20   11   53 1   
    21   12   13 1   
    22   12   21 1   
    23   12   54 1   
    24   13   14 1   
    25   13   55 1   
    26   13   56 1   
    27   14   15 ar  
    28   14   20 ar  
    29   15   16 ar  
    30   15   57 1   
    31   16   17 ar  
    32   16   58 1   
    33   17   18 1   
    34   17   19 ar  
    35   18   59 1   
    36   19   20 ar  
    37   19   60 1   
    38   20   61 1   
    39   21   22 2   
    40   21   23 1   
    41   23   24 1   
    42   23   62 1   
    43   23   81 1   
    44   24   25 1   
    45   24   28 1   
    46   24   63 1   
    47   25   26 1   
    48   25   27 1   
    49   25   64 1   
    50   26   65 1   
    51   26   66 1   
    52   26   67 1   
    53   27   68 1   
    54   27   69 1   
    55   27   70 1   
    56   28   29 1   
    57   28   30 2   
    58   28   31 1   
    59   29   80 1   
    60   31   32 1   
    61   32   33 1   
    62   32   36 1   
    63   32   71 1   
    64   33   34 1   
    65   33   35 1   
    66   36   37 ar  
    67   36   38 ar  
    68   37   41 ar  
    69   37   72 1   
    70   38   39 ar  
    71   38   73 1   
    72   39   40 ar  
    73   39   74 1   
    74   40   41 ar  
    75   40   75 1   
    76   41   42 1   
    77   42   43 1   
    78   42   76 1   
    79   43   44 2   
    80   43   45 1   
    81   44   77 1   
    82   45   78 1   
    83   45   79 1   
    84   45   82 1   
@<TRIPOS>SUBSTRUCTURE
     1 343         1 TEMP              0 ****  ****    0 ROOT
