@<TRIPOS>MOLECULE
344
   23    25     1     0     0
SMALL
bcc


@<TRIPOS>ATOM
      1 N4         -0.0470   -0.0260   -0.1010 nc        1 344     -0.538100
      2 C9          1.2960   -0.0180   -0.0500 cd        1 344      0.464700
      3 N5          1.8060   -0.0070    1.2640 na        1 344     -0.273300
      4 C1          0.7010   -0.0060    2.1160 ca        1 344     -0.057200
      5 C2          0.5870    0.0030    3.5060 ca        1 344     -0.068000
      6 C3         -0.7120   -0.0000    4.0430 ca        1 344      0.136400
      7 N3         -0.8570    0.0090    5.4390 nc        1 344     -0.548100
      8 C8         -2.0810    0.0060    5.9290 cd        1 344      0.510800
      9 N2         -2.1870    0.0160    7.4290 n4        1 344     -0.800600
     10 N1         -3.2770   -0.0050    5.2070 n         1 344     -0.514400
     11 C7         -3.2090   -0.0150    3.7830 c         1 344      0.730100
     12 O1         -4.2860   -0.0250    3.1800 o         1 344     -0.540500
     13 C4         -1.8630   -0.0120    3.1850 ca        1 344     -0.182600
     14 C5         -1.7520   -0.0210    1.7980 ca        1 344      0.015000
     15 C6         -0.4700   -0.0180    1.2410 ca        1 344      0.088400
     16 H9          1.9610   -0.0210   -0.9280 h5        1 344      0.096800
     17 HN5         2.7550    0.0000    1.5340 hn        1 344      0.326700
     18 H2          1.4760    0.0120    4.1550 ha        1 344      0.169000
     19 HN21       -2.6850   -0.8250    7.7420 hn        1 344      0.479467
     20 HN22       -2.6930    0.8560    7.7300 hn        1 344      0.479467
     21 HN1        -4.1740   -0.0070    5.6420 hn        1 344      0.349500
     22 H5         -2.6540   -0.0300    1.1590 ha        1 344      0.196000
     23 H23        -1.2420    0.0240    7.8420 hn        1 344      0.479467
@<TRIPOS>BOND
     1    1    2 2   
     2    1   15 1   
     3    2    3 1   
     4    2   16 1   
     5    3    4 1   
     6    3   17 1   
     7    4    5 ar  
     8    4   15 ar  
     9    5    6 ar  
    10    5   18 1   
    11    6    7 1   
    12    6   13 ar  
    13    7    8 2   
    14    8    9 1   
    15    8   10 1   
    16    9   19 1   
    17    9   20 1   
    18    9   23 1   
    19   10   11 1   
    20   10   21 1   
    21   11   12 2   
    22   11   13 1   
    23   13   14 ar  
    24   14   15 ar  
    25   14   22 1   
@<TRIPOS>SUBSTRUCTURE
     1 344         1 TEMP              0 ****  ****    0 ROOT
