@<TRIPOS>MOLECULE
344
   22    24     1     0     0
SMALL
bcc


@<TRIPOS>ATOM
      1 N4         -3.3710   -1.0640    0.0130 nc        1 344     -0.551100
      2 C9         -4.0970    0.0590    0.0150 cd        1 344      0.423700
      3 N5         -3.3160    1.2360    0.0110 na        1 344     -0.301300
      4 C1         -1.9810    0.8230    0.0050 ca        1 344     -0.024200
      5 C2         -0.7860    1.5340   -0.0020 ca        1 344     -0.154000
      6 C3          0.4150    0.7940   -0.0060 ca        1 344      0.226400
      7 N3          1.6250    1.4900   -0.0030 nc        1 344     -0.685100
      8 C8          2.7670    0.7920   -0.0370 cd        1 344      0.668800
      9 N2          4.0000    1.4800   -0.1690 nh        1 344     -0.886800
     10 N1          2.8220   -0.6190   -0.0060 n         1 344     -0.509400
     11 C7          1.6400   -1.3810   -0.0150 c         1 344      0.722100
     12 O1          1.7480   -2.6200   -0.0230 o         1 344     -0.621500
     13 C4          0.3690   -0.6370   -0.0040 ca        1 344     -0.225600
     14 C5         -0.8290   -1.3530    0.0010 ca        1 344      0.016000
     15 C6         -2.0220   -0.6370    0.0060 ca        1 344      0.030400
     16 H9         -5.1940    0.1030    0.0200 h5        1 344      0.070800
     17 HN5        -3.6400    2.1640    0.0050 hn        1 344      0.308700
     18 H2         -0.7700    2.6330   -0.0050 ha        1 344      0.155000
     19 HN21        3.9190    2.4730   -0.0970 hn        1 344      0.413800
     20 HN22        4.7460    1.1040    0.3750 hn        1 344      0.413800
     21 HN1         3.6910   -1.0980   -0.0860 hn        1 344      0.335500
     22 H5         -0.8180   -2.4550    0.0010 ha        1 344      0.174000
@<TRIPOS>BOND
     1    1    2 2   
     2    1   15 1   
     3    2    3 1   
     4    2   16 1   
     5    3    4 1   
     6    3   17 1   
     7    4    5 ar  
     8    4   15 ar  
     9    5    6 ar  
    10    5   18 1   
    11    6    7 1   
    12    6   13 ar  
    13    7    8 2   
    14    8    9 1   
    15    8   10 1   
    16    9   19 1   
    17    9   20 1   
    18   10   11 1   
    19   10   21 1   
    20   11   12 2   
    21   11   13 1   
    22   13   14 ar  
    23   14   15 ar  
    24   14   22 1   
@<TRIPOS>SUBSTRUCTURE
     1 344         1 TEMP              0 ****  ****    0 ROOT
