@<TRIPOS>MOLECULE
344
   22    17     1     0     0
SMALL
bcc


@<TRIPOS>ATOM
      1 N4          0.9560   -0.0320   -3.4370 ne        1 344     -0.463400
      2 C9          2.3150   -0.0320   -3.4370 c1        1 344      0.408800
      3 N5          2.7360   -0.0320   -2.1450 ne        1 344     -0.463400
      4 C1          1.6400   -0.0320   -1.3460 cg        1 344      0.008000
      5 C2          1.4930   -0.0320    0.0530 c1        1 344     -0.011500
      6 C3          0.2030   -0.0320    0.6280 cg        1 344      0.412800
      7 N3          0.0590   -0.0320    1.9840 n1        1 344     -0.583800
      8 C8         -1.1890   -0.0320    2.5400 c1        1 344      0.442400
      9 N2         -1.2050    0.1650    3.9450 n3        1 344     -0.424400
     10 N1         -2.2990   -0.0320    1.7350 n2        1 344     -0.813800
     11 C7         -2.1610   -0.0320    0.3960 c1        1 344      0.613900
     12 O1         -3.1450   -0.0390   -0.3150 o         1 344     -0.600900
     13 C4         -0.8960   -0.0320   -0.1700 cg        1 344     -0.205000
     14 C5         -0.7490   -0.0320   -1.5740 c1        1 344     -0.011500
     15 C6          0.5370   -0.0320   -2.1470 cg        1 344      0.008000
     16 H9          2.8890   -0.0340   -4.2270 DU        1 344      0.229500
     17 HN5         3.6040   -0.0320   -1.8640 DU        1 344      0.229500
     18 H2          2.2830   -0.0270    0.6270 ha        1 344      0.107000
     19 HN21       -1.1990    1.0100    4.2870 hn        1 344      0.258700
     20 HN22       -1.2030   -0.5540    4.5060 hn        1 344      0.258700
     21 HN1        -3.1310   -0.0320    2.1080 hn        1 344      0.493400
     22 H5         -1.5390   -0.0360   -2.1480 ha        1 344      0.107000
@<TRIPOS>BOND
     1    1    2 2   
     2    1   15 1   
     3    2    3 2   
     4    3    4 1   
     5    4    5 3   
     6    5   18 1   
     7    6    7 3   
     8    6   13 1   
     9    8    9 2   
    10    8   10 2   
    11    9   19 1   
    12    9   20 1   
    13   10   21 1   
    14   11   12 1   
    15   11   13 3   
    16   14   15 3   
    17   14   22 1   
@<TRIPOS>SUBSTRUCTURE
     1 344         1 TEMP              0 ****  ****    0 ROOT
