@<TRIPOS>MOLECULE
345
   48    44     1     0     0
SMALL
bcc


@<TRIPOS>ATOM
      1 C1          2.0860    4.2400    0.9990 c1        1 345      0.031000
      2 C2          3.4480    4.0520    0.7970 c1        1 345     -0.124000
      3 C3          4.2880    3.8250    1.8840 c1        1 345     -0.124000
      4 C4          3.7650    3.7860    3.1710 c1        1 345     -0.064000
      5 C5          2.4070    3.9740    3.3720 c1        1 345     -0.113000
      6 C6          1.5650    4.2020    2.2830 c1        1 345     -0.116000
      7 O11         1.2190    4.4700   -0.1220 os        1 345     -0.150000
      8 C12         0.7270    3.2260   -0.6050 c2        1 345      0.146000
      9 C13         1.5310    2.4250   -1.4090 c2        1 345     -0.224000
     10 C14         1.0520    1.2000   -1.8720 c1        1 345      0.021000
     11 C15        -0.2280    0.7800   -1.5300 c1        1 345     -0.870000
     12 C16        -1.0310    1.5810   -0.7260 c1        1 345      0.014000
     13 C17        -0.5520    2.8060   -0.2630 c1        1 345     -0.179000
     14 S22        -0.8330   -0.8180   -2.0990 s4        1 345      2.019800
     15 O23        -2.1450   -0.7070   -2.6610 o         1 345     -0.535900
     16 O24        -0.0820   -1.2880   -3.2330 o         1 345     -0.535900
     17 C25        -0.7960   -2.0190   -0.7450 c2        1 345     -0.653000
     18 C26        -1.5330   -1.5130    0.4660 c3        1 345     -0.166000
     19 C27        -1.4250   -2.4460    1.6560 c3        1 345     -0.021500
     20 O28        -0.0660   -2.7900    1.9770 os        1 345     -0.269000
     21 C29         0.6840   -3.2820    0.8580 c3        1 345     -0.021500
     22 C30         0.6170   -2.3650   -0.3470 c3        1 345     -0.166000
     23 C39        -1.5300   -3.2460   -1.3960 c3        1 345     -0.172000
     24 C40        -2.9740   -2.8550   -1.7440 c2        1 345      0.235000
     25 N43        -4.0320   -3.8100   -1.5880 n         1 345     -0.211000
     26 O44        -3.2260   -1.7240   -2.1040 o         1 345     -0.320000
     27 O45        -5.2210   -3.6330   -2.2530 oh        1 345     -0.231000
     28 CL4         4.8170    3.4830    4.5330 cl        1 345     -0.001000
     29 H2          3.8150    4.0790   -0.1060 ha        1 345      0.156000
     30 H3          5.2400    3.6940    1.7430 ha        1 345      0.156000
     31 H5          2.0400    3.9470    4.2770 ha        1 345      0.156000
     32 H6          0.6100    4.3340    2.4250 ha        1 345      0.158000
     33 H13         2.4350    2.7220   -1.6510 ha        1 345      0.159000
     34 H14         1.6140    0.6400   -2.4340 ha        1 345      0.160000
     35 H16        -1.9320    1.2860   -0.4860 ha        1 345      0.160000
     36 H17        -1.1150    3.3670    0.3000 ha        1 345      0.165000
     37 H261       -1.1640   -0.6360    0.7180 hc        1 345      0.103500
     38 H262       -2.4820   -1.4030    0.2370 hc        1 345      0.103500
     39 H271       -1.9190   -3.2670    1.4580 h1        1 345      0.096500
     40 H272       -1.8350   -2.0110    2.4390 h1        1 345      0.096500
     41 H291        1.6210   -3.3810    1.1260 h1        1 345      0.096500
     42 H292        0.3320   -4.1610    0.6040 h1        1 345      0.096500
     43 H301        1.0520   -2.7990   -1.0940 hc        1 345      0.103500
     44 H302        1.0930   -1.5450   -0.1420 hc        1 345      0.103500
     45 H391       -1.0580   -3.5130   -2.2110 hc        1 345      0.128000
     46 H392       -1.5380   -3.9890   -0.7690 hc        1 345      0.128000
     47 HN         -3.9140   -4.5420   -1.0440 hn        1 345      0.243000
     48 HO         -5.4300   -4.3760   -2.6870 ho        1 345      0.230000
@<TRIPOS>BOND
     1    1    6 1   
     2    1    7 1   
     3    2    3 1   
     4    2   29 1   
     5    3   30 1   
     6    4    5 1   
     7    4   28 1   
     8    5   31 1   
     9    6   32 1   
    10    7    8 1   
    11    8    9 1   
    12    8   13 1   
    13    9   10 1   
    14    9   33 1   
    15   10   34 1   
    16   11   12 1   
    17   11   14 1   
    18   12   35 1   
    19   13   36 1   
    20   14   15 1   
    21   14   16 1   
    22   17   18 1   
    23   17   22 1   
    24   17   23 1   
    25   18   19 1   
    26   18   37 1   
    27   18   38 1   
    28   19   20 1   
    29   19   39 1   
    30   19   40 1   
    31   20   21 1   
    32   21   22 1   
    33   21   41 1   
    34   21   42 1   
    35   22   43 1   
    36   22   44 1   
    37   23   24 1   
    38   23   45 1   
    39   23   46 1   
    40   24   25 1   
    41   24   26 1   
    42   25   27 1   
    43   25   47 1   
    44   27   48 1   
@<TRIPOS>SUBSTRUCTURE
     1 345         1 TEMP              0 ****  ****    0 ROOT
