@<TRIPOS>MOLECULE
345
   49    51     1     0     0
SMALL
bcc


@<TRIPOS>ATOM
      1 C1          0.3890   -0.8820    1.0000 ca        1 345      0.042100
      2 C2          1.2080   -0.9310    2.1330 ca        1 345     -0.114500
      3 C3          0.8550   -0.1750    3.2490 ca        1 345     -0.114500
      4 C4         -0.2990    0.6180    3.2170 ca        1 345      0.027400
      5 C5         -1.1130    0.6540    2.0780 ca        1 345     -0.114500
      6 C6         -0.7700   -0.1000    0.9580 ca        1 345     -0.114500
      7 O11         0.6730   -1.7660   -0.0540 os        1 345     -0.218200
      8 C12         1.2500   -1.2350   -1.1760 ca        1 345      0.235100
      9 C13         1.6260    0.1140   -1.3210 ca        1 345     -0.201000
     10 C14         2.2120    0.5270   -2.5040 ca        1 345      0.028000
     11 C15         2.4510   -0.3640   -3.5680 ca        1 345     -0.506500
     12 C16         2.0480   -1.7080   -3.3990 ca        1 345      0.028000
     13 C17         1.4620   -2.1530   -2.2310 ca        1 345     -0.201000
     14 S22         3.0570    0.1310   -4.9930 sy        1 345      1.394300
     15 O23         2.9220    1.5400   -5.1470 o         1 345     -0.674300
     16 O24         2.6630   -0.6680   -6.0620 o         1 345     -0.674300
     17 C25         4.8470   -0.0280   -4.8080 c3        1 345     -0.212200
     18 C26         5.4370   -0.1380   -6.2130 c3        1 345     -0.102900
     19 C27         6.8950   -0.5700   -6.2020 c3        1 345      0.124900
     20 O28         7.0630   -1.8010   -5.5180 os        1 345     -0.381600
     21 C29         6.6200   -1.7460   -4.1700 c3        1 345      0.124900
     22 C30         5.1620   -1.3280   -4.0660 c3        1 345     -0.102900
     23 C39         5.4250    1.1430   -4.0250 c3        1 345     -0.106400
     24 C40         5.8850    2.3060   -4.8600 c         1 345      0.555100
     25 N43         4.8180    3.3120   -5.3040 n4        1 345     -0.455300
     26 O44         7.0170    2.5930   -5.2100 o         1 345     -0.410100
     27 O45         5.2970    4.5470   -5.5620 oh        1 345     -0.358300
     28 CL4        -0.7180    1.5400    4.5740 cl        1 345     -0.054400
     29 H2          2.1010   -1.5740    2.1480 ha        1 345      0.157500
     30 H3          1.4820   -0.2090    4.1550 ha        1 345      0.165000
     31 H5         -2.0270    1.2690    2.0660 ha        1 345      0.165000
     32 H6         -1.4080   -0.0960    0.0620 ha        1 345      0.157500
     33 H13         1.4400    0.8270   -0.5020 ha        1 345      0.177500
     34 H14         2.4750    1.5920   -2.6280 ha        1 345      0.151000
     35 H16         2.1880   -2.4180   -4.2370 ha        1 345      0.151000
     36 H17         1.1470   -3.2020   -2.1070 ha        1 345      0.177500
     37 H261        5.3420    0.8400   -6.7520 hc        1 345      0.072450
     38 H262        4.8500   -0.9070   -6.7930 hc        1 345      0.072450
     39 H271        7.2550   -0.7850   -7.2450 h1        1 345      0.064450
     40 H272        7.5370    0.2220   -5.7290 h1        1 345      0.064450
     41 H291        7.2810   -1.0540   -3.5820 h1        1 345      0.064450
     42 H292        6.7550   -2.7980   -3.7960 h1        1 345      0.064450
     43 H301        4.5300   -2.1430   -4.5150 hc        1 345      0.072450
     44 H302        4.8890   -1.2260   -2.9830 hc        1 345      0.072450
     45 H391        6.3470    0.8060   -3.4640 hc        1 345      0.111700
     46 H392        4.6740    1.4950   -3.2620 hc        1 345      0.111700
     47 HN          4.0980    3.4240   -4.5570 hn        1 345      0.503300
     48 HO          6.1630    4.4650   -6.0310 ho        1 345      0.479000
     49 H432        4.3080    2.9350   -6.1350 hn        1 345      0.503300
@<TRIPOS>BOND
     1    1    2 ar  
     2    1    6 ar  
     3    1    7 1   
     4    2    3 ar  
     5    2   29 1   
     6    3    4 ar  
     7    3   30 1   
     8    4    5 ar  
     9    4   28 1   
    10    5    6 ar  
    11    5   31 1   
    12    6   32 1   
    13    7    8 1   
    14    8    9 ar  
    15    8   13 ar  
    16    9   10 ar  
    17    9   33 1   
    18   10   11 ar  
    19   10   34 1   
    20   11   12 ar  
    21   11   14 1   
    22   12   13 ar  
    23   12   35 1   
    24   13   36 1   
    25   14   15 2   
    26   14   16 2   
    27   14   17 1   
    28   17   18 1   
    29   17   22 1   
    30   17   23 1   
    31   18   19 1   
    32   18   37 1   
    33   18   38 1   
    34   19   20 1   
    35   19   39 1   
    36   19   40 1   
    37   20   21 1   
    38   21   22 1   
    39   21   41 1   
    40   21   42 1   
    41   22   43 1   
    42   22   44 1   
    43   23   24 1   
    44   23   45 1   
    45   23   46 1   
    46   24   25 1   
    47   24   26 2   
    48   25   27 1   
    49   25   47 1   
    50   25   49 1   
    51   27   48 1   
@<TRIPOS>SUBSTRUCTURE
     1 345         1 TEMP              0 ****  ****    0 ROOT
