@<TRIPOS>MOLECULE
345
   49    51     1     0     0
SMALL
bcc


@<TRIPOS>ATOM
      1 C1          0.3680   -0.8350    0.9940 ca        1 345      0.042100
      2 C2          1.1760   -0.8770    2.1360 ca        1 345     -0.114500
      3 C3          0.8170   -0.1070    3.2410 ca        1 345     -0.114500
      4 C4         -0.3320    0.6920    3.1900 ca        1 345      0.027400
      5 C5         -1.1350    0.7210    2.0420 ca        1 345     -0.114500
      6 C6         -0.7860   -0.0470    0.9340 ca        1 345     -0.114500
      7 O11         0.6570   -1.7310   -0.0470 os        1 345     -0.218200
      8 C12         1.2410   -1.2140   -1.1720 ca        1 345      0.235100
      9 C13         1.6190    0.1330   -1.3310 ca        1 345     -0.201000
     10 C14         2.2110    0.5320   -2.5160 ca        1 345      0.028000
     11 C15         2.4550   -0.3720   -3.5670 ca        1 345     -0.506500
     12 C16         2.0510   -1.7140   -3.3850 ca        1 345      0.028000
     13 C17         1.4580   -2.1440   -2.2150 ca        1 345     -0.201000
     14 S22         3.0700    0.1060   -4.9950 sy        1 345      1.394300
     15 O23         2.9370    1.5130   -5.1660 o         1 345     -0.674300
     16 O24         2.6820   -0.7050   -6.0570 o         1 345     -0.674300
     17 C25         4.8590   -0.0520   -4.7990 c3        1 345     -0.212200
     18 C26         5.4560   -0.1770   -6.1990 c3        1 345     -0.102900
     19 C27         6.9140   -0.6110   -6.1750 c3        1 345      0.124900
     20 O28         7.0770   -1.8340   -5.4760 os        1 345     -0.381600
     21 C29         6.6270   -1.7640   -4.1310 c3        1 345      0.124900
     22 C30         5.1690   -1.3440   -4.0400 c3        1 345     -0.102900
     23 C39         5.4330    1.1270   -4.0250 c3        1 345     -0.106400
     24 C40         5.8990    2.2800   -4.8700 c         1 345      0.555100
     25 N43         4.8350    3.2830   -5.3310 ny        1 345     -0.455300
     26 O44         7.0330    2.5630   -5.2170 o         1 345     -0.410100
     27 O45         5.3160    4.5140   -5.5990 oh        1 345     -0.358300
     28 Cl4        -0.7590    1.6310    4.5330 cl        1 345     -0.054400
     29 H2          2.0650   -1.5240    2.1660 ha        1 345      0.157500
     30 H3          1.4350   -0.1350    4.1530 ha        1 345      0.165000
     31 H5         -2.0460    1.3410    2.0160 ha        1 345      0.165000
     32 H6         -1.4160   -0.0490    0.0310 ha        1 345      0.157500
     33 H13         1.4280    0.8560   -0.5220 ha        1 345      0.177500
     34 H14         2.4760    1.5950   -2.6510 ha        1 345      0.151000
     35 H16         2.1960   -2.4340   -4.2140 ha        1 345      0.151000
     36 H17         1.1420   -3.1920   -2.0800 ha        1 345      0.177500
     37 H261        5.3650    0.7950   -6.7490 hc        1 345      0.072450
     38 H262        4.8720   -0.9520   -6.7740 hc        1 345      0.072450
     39 H271        7.5540    0.1860   -5.7070 h1        1 345      0.064450
     40 H272        7.2790   -0.8370   -7.2130 h1        1 345      0.064450
     41 H291        6.7590   -2.8120   -3.7460 h1        1 345      0.064450
     42 H292        7.2850   -1.0670   -3.5480 h1        1 345      0.064450
     43 H301        4.5380   -2.1630   -4.4840 hc        1 345      0.072450
     44 H302        4.8890   -1.2300   -2.9610 hc        1 345      0.072450
     45 H391        6.3520    0.7950   -3.4550 hc        1 345      0.111700
     46 H392        4.6780    1.4880   -3.2700 hc        1 345      0.111700
     47 HN          4.1100    3.4030   -4.5890 hn        1 345      0.503300
     48 HO          6.1850    4.4270   -6.0620 ho        1 345      0.479000
     49 H432        4.3290    2.8960   -6.1600 hn        1 345      0.503300
@<TRIPOS>BOND
     1    1    2 ar  
     2    1    6 ar  
     3    1    7 1   
     4    2    3 ar  
     5    2   29 1   
     6    3    4 ar  
     7    3   30 1   
     8    4    5 ar  
     9    4   28 1   
    10    5    6 ar  
    11    5   31 1   
    12    6   32 1   
    13    7    8 1   
    14    8    9 ar  
    15    8   13 ar  
    16    9   10 ar  
    17    9   33 1   
    18   10   11 ar  
    19   10   34 1   
    20   11   12 ar  
    21   11   14 1   
    22   12   13 ar  
    23   12   35 1   
    24   13   36 1   
    25   14   15 2   
    26   14   16 2   
    27   14   17 1   
    28   17   18 1   
    29   17   22 1   
    30   17   23 1   
    31   18   19 1   
    32   18   37 1   
    33   18   38 1   
    34   19   20 1   
    35   19   39 1   
    36   19   40 1   
    37   20   21 1   
    38   21   22 1   
    39   21   41 1   
    40   21   42 1   
    41   22   43 1   
    42   22   44 1   
    43   23   24 1   
    44   23   45 1   
    45   23   46 1   
    46   24   25 1   
    47   24   26 2   
    48   25   27 1   
    49   25   47 1   
    50   25   49 1   
    51   27   48 1   
@<TRIPOS>SUBSTRUCTURE
     1 345         1 TEMP              0 ****  ****    0 ROOT
