@<TRIPOS>MOLECULE
345
   49    51     1     0     0
SMALL
bcc


@<TRIPOS>ATOM
      1 C1          0.4170   -0.8380    1.0320 ca        1 345      0.042100
      2 C2          1.2400   -0.9010    2.1620 ca        1 345     -0.114500
      3 C3          0.9060   -0.1380    3.2790 ca        1 345     -0.114500
      4 C4         -0.2330    0.6760    3.2530 ca        1 345      0.027400
      5 C5         -1.0510    0.7270    2.1170 ca        1 345     -0.114500
      6 C6         -0.7290   -0.0340    0.9960 ca        1 345     -0.114500
      7 O11         0.6790   -1.7270   -0.0220 os        1 345     -0.218200
      8 C12         1.2520   -1.2060   -1.1510 ca        1 345      0.235100
      9 C13         1.6410    0.1390   -1.3040 ca        1 345     -0.201000
     10 C14         2.2200    0.5420   -2.4930 ca        1 345      0.028000
     11 C15         2.4380   -0.3540   -3.5570 ca        1 345     -0.506500
     12 C16         2.0210   -1.6930   -3.3810 ca        1 345      0.028000
     13 C17         1.4420   -2.1280   -2.2060 ca        1 345     -0.201000
     14 S22         3.0350    0.1300   -4.9890 sy        1 345      1.394300
     15 O23         2.9160    1.5410   -5.1450 o         1 345     -0.674300
     16 O24         2.6220   -0.6660   -6.0530 o         1 345     -0.674300
     17 C25         4.8250   -0.0490   -4.8230 c3        1 345     -0.212200
     18 C26         5.3990   -0.1680   -6.2330 c3        1 345     -0.102900
     19 C27         6.8530   -0.6170   -6.2360 c3        1 345      0.124900
     20 O28         7.0130   -1.8490   -5.5510 os        1 345     -0.381600
     21 C29         6.5840   -1.7860   -4.1990 c3        1 345      0.124900
     22 C30         5.1330   -1.3510   -4.0810 c3        1 345     -0.102900
     23 C39         5.4240    1.1170   -4.0480 c3        1 345     -0.106400
     24 C40         5.8900    2.2730   -4.8890 c         1 345      0.555100
     25 N43         4.8300    3.2910   -5.3250 n4        1 345     -0.455300
     26 O44         7.0210    2.5470   -5.2510 o         1 345     -0.410100
     27 O45         5.3200    4.5190   -5.5890 oh        1 345     -0.358300
     28 CL4        -0.6290    1.6060    4.6120 cl        1 345     -0.054400
     29 H2          2.1210   -1.5600    2.1720 ha        1 345      0.157500
     30 H3          1.5370   -0.1830    4.1810 ha        1 345      0.165000
     31 H5         -1.9540    1.3580    2.1100 ha        1 345      0.165000
     32 H6         -1.3710   -0.0190    0.1030 ha        1 345      0.157500
     33 H13         1.4720    0.8560   -0.4850 ha        1 345      0.177500
     34 H14         2.4950    1.6040   -2.6230 ha        1 345      0.151000
     35 H16         2.1450   -2.4070   -4.2190 ha        1 345      0.151000
     36 H17         1.1160   -3.1730   -2.0760 ha        1 345      0.177500
     37 H261        5.3110    0.8110   -6.7730 hc        1 345      0.072450
     38 H262        4.7980   -0.9310   -6.8060 hc        1 345      0.072450
     39 H271        7.5080    0.1680   -5.7710 h1        1 345      0.064450
     40 H272        7.1990   -0.8370   -7.2820 h1        1 345      0.064450
     41 H291        6.7110   -2.8390   -3.8250 h1        1 345      0.064450
     42 H292        7.2600   -1.1010   -3.6200 h1        1 345      0.064450
     43 H301        4.8710   -1.2440   -2.9960 hc        1 345      0.072450
     44 H302        4.4860   -2.1590   -4.5220 hc        1 345      0.072450
     45 H391        6.3480    0.7700   -3.4950 hc        1 345      0.111700
     46 H392        4.6860    1.4790   -3.2780 hc        1 345      0.111700
     47 HN          4.3070    2.9180   -6.1490 hn        1 345      0.503300
     48 HO          6.1810    4.4270   -6.0670 ho        1 345      0.479000
     49 H432        4.1180    3.4120   -4.5700 hn        1 345      0.503300
@<TRIPOS>BOND
     1    1    2 ar  
     2    1    6 ar  
     3    1    7 1   
     4    2    3 ar  
     5    2   29 1   
     6    3    4 ar  
     7    3   30 1   
     8    4    5 ar  
     9    4   28 1   
    10    5    6 ar  
    11    5   31 1   
    12    6   32 1   
    13    7    8 1   
    14    8    9 ar  
    15    8   13 ar  
    16    9   10 ar  
    17    9   33 1   
    18   10   11 ar  
    19   10   34 1   
    20   11   12 ar  
    21   11   14 1   
    22   12   13 ar  
    23   12   35 1   
    24   13   36 1   
    25   14   15 2   
    26   14   16 2   
    27   14   17 1   
    28   17   18 1   
    29   17   22 1   
    30   17   23 1   
    31   18   19 1   
    32   18   37 1   
    33   18   38 1   
    34   19   20 1   
    35   19   39 1   
    36   19   40 1   
    37   20   21 1   
    38   21   22 1   
    39   21   41 1   
    40   21   42 1   
    41   22   43 1   
    42   22   44 1   
    43   23   24 1   
    44   23   45 1   
    45   23   46 1   
    46   24   25 1   
    47   24   26 2   
    48   25   27 1   
    49   25   47 1   
    50   25   49 1   
    51   27   48 1   
@<TRIPOS>SUBSTRUCTURE
     1 345         1 TEMP              0 ****  ****    0 ROOT
