@<TRIPOS>MOLECULE
345
   48    50     1     0     0
SMALL
bcc


@<TRIPOS>ATOM
      1 C1         -0.5340   -0.4560   -4.3440 ca        1 345      0.078100
      2 C2          0.5430   -0.8130   -5.1650 ca        1 345     -0.129000
      3 C3          0.7780   -0.0800   -6.3260 ca        1 345     -0.110500
      4 C4         -0.0520    0.9990   -6.6490 ca        1 345      0.013400
      5 C5         -1.1240    1.3510   -5.8210 ca        1 345     -0.110500
      6 C6         -1.3710    0.6210   -4.6610 ca        1 345     -0.129000
      7 O11        -0.8150   -1.3060   -3.2710 os        1 345     -0.241200
      8 C12        -0.8620   -0.7380   -2.0120 ca        1 345      0.188100
      9 C13        -1.3850   -1.5750   -1.0070 ca        1 345     -0.204000
     10 C14        -1.4330   -1.1070    0.2970 ca        1 345      0.012500
     11 C15        -0.9650    0.1740    0.6350 ca        1 345     -0.426500
     12 C16        -0.4680    0.9920   -0.3910 ca        1 345      0.012500
     13 C17        -0.4060    0.5520   -1.7060 ca        1 345     -0.204000
     14 S22        -1.1020    0.7460    2.1970 sy        1 345      1.350300
     15 O23        -1.9900   -0.0550    2.9300 o         1 345     -0.641300
     16 O24        -1.3560    2.1280    2.1660 o         1 345     -0.641300
     17 C25         0.5350    0.5210    2.8500 c3        1 345     -0.195200
     18 C26         0.4600    1.0210    4.2930 c3        1 345     -0.106900
     19 C27         1.8340    1.1730    4.9180 c3        1 345      0.136400
     20 O28         2.6680    2.0410    4.1590 os        1 345     -0.410600
     21 C29         2.8300    1.6200    2.8140 c3        1 345      0.136400
     22 C30         1.5040    1.4350    2.0960 c3        1 345     -0.106900
     23 C39         1.0520   -0.9060    2.7520 c3        1 345     -0.123400
     24 C40         0.3690   -1.9230    3.6430 c         1 345      0.589100
     25 N43        -0.3800   -2.9520    2.9830 n         1 345     -0.345400
     26 O44         0.3870   -1.8620    4.8820 o         1 345     -0.545100
     27 O45        -0.7390   -3.9670    3.7740 oh        1 345     -0.440100
     28 CL4         0.2440    1.8930   -8.0620 cl        1 345     -0.079400
     29 H2          1.1790   -1.6700   -4.8990 ha        1 345      0.156500
     30 H3          1.6170   -0.3530   -6.9850 ha        1 345      0.156500
     31 H5         -1.7760    2.1990   -6.0840 ha        1 345      0.156500
     32 H6         -2.2120    0.8810   -4.0010 ha        1 345      0.156500
     33 H13        -1.7530   -2.5780   -1.2700 ha        1 345      0.161000
     34 H14        -1.8720   -1.7440    1.0880 ha        1 345      0.165500
     35 H16        -0.1340    2.0170   -0.1450 ha        1 345      0.165500
     36 H17        -0.0130    1.2060   -2.4980 ha        1 345      0.161000
     37 H261       -0.0470    2.0260    4.2930 hc        1 345      0.075700
     38 H262       -0.1490    0.3150    4.9170 hc        1 345      0.075700
     39 H271        1.7610    1.6760    5.9200 h1        1 345      0.052700
     40 H272        2.3270    0.1710    5.0300 h1        1 345      0.052700
     41 H291        3.4190    2.4500    2.3380 h1        1 345      0.052700
     42 H292        3.4330    0.6730    2.7880 h1        1 345      0.052700
     43 H301        1.7040    1.0170    1.0750 hc        1 345      0.075700
     44 H302        1.0190    2.4450    1.9800 hc        1 345      0.075700
     45 H391        2.1350   -0.9230    3.0610 hc        1 345      0.074700
     46 H392        1.0080   -1.2200    1.6730 hc        1 345      0.074700
     47 HN          0.1240   -3.3460    2.1950 hn        1 345      0.290500
     48 HO         -1.4520   -3.6170    4.3460 ho        1 345      0.442000
@<TRIPOS>BOND
     1    1    2 ar  
     2    1    6 ar  
     3    1    7 1   
     4    2    3 ar  
     5    2   29 1   
     6    3    4 ar  
     7    3   30 1   
     8    4    5 ar  
     9    4   28 1   
    10    5    6 ar  
    11    5   31 1   
    12    6   32 1   
    13    7    8 1   
    14    8    9 ar  
    15    8   13 ar  
    16    9   10 ar  
    17    9   33 1   
    18   10   11 ar  
    19   10   34 1   
    20   11   12 ar  
    21   11   14 1   
    22   12   13 ar  
    23   12   35 1   
    24   13   36 1   
    25   14   15 2   
    26   14   16 2   
    27   14   17 1   
    28   17   18 1   
    29   17   22 1   
    30   17   23 1   
    31   18   19 1   
    32   18   37 1   
    33   18   38 1   
    34   19   20 1   
    35   19   39 1   
    36   19   40 1   
    37   20   21 1   
    38   21   22 1   
    39   21   41 1   
    40   21   42 1   
    41   22   43 1   
    42   22   44 1   
    43   23   24 1   
    44   23   45 1   
    45   23   46 1   
    46   24   25 1   
    47   24   26 2   
    48   25   27 1   
    49   25   47 1   
    50   27   48 1   
@<TRIPOS>SUBSTRUCTURE
     1 345         1 TEMP              0 ****  ****    0 ROOT
