@<TRIPOS>MOLECULE
346
   54    56     1     0     0
SMALL
bcc


@<TRIPOS>ATOM
      1 F30         0.0800    1.3640    0.5130 f         1 346     -0.124900
      2 C12         1.3530    1.0340    0.2010 ca        1 346      0.094900
      3 C13         2.2370    0.6090    1.2220 ca        1 346      0.101100
      4 O25         1.7220    0.6250    2.5050 os        1 346     -0.316900
      5 C26         2.2240   -0.3870    3.3890 c3        1 346      0.114100
      6 C27         1.1020   -0.6920    4.3900 c3        1 346     -0.114400
      7 C29         1.6610   -0.3140    5.7560 c3        1 346      0.126400
      8 O28         3.0490    0.0120    5.6130 os        1 346     -0.421600
      9 C31         3.3850    0.1600    4.2340 c3        1 346      0.100400
     10 C8          3.5630    0.2680    0.9340 ca        1 346     -0.241000
     11 C9          4.0040    0.3470   -0.3900 ca        1 346      0.135100
     12 O23         5.2860    0.0440   -0.8030 os        1 346     -0.324900
     13 C24         6.1850   -0.4100    0.2170 c3        1 346      0.127400
     14 C30         7.4940   -0.6970   -0.4820 c3        1 346     -0.100100
     15 C10         3.1410    0.7640   -1.4200 ca        1 346     -0.142000
     16 C11         1.8250    1.1100   -1.1290 ca        1 346     -0.063300
     17 C14         0.9050    1.5630   -2.2280 c3        1 346      0.132800
     18 C15         0.9410    0.5720   -3.4280 c         1 346      0.894600
     19 O2         -0.1170   -0.0570   -3.7360 o         1 346     -0.847800
     20 O1          1.9790    0.4670   -4.1570 o         1 346     -0.847800
     21 N3          1.1990    2.9590   -2.6320 nu        1 346     -0.679600
     22 C1          0.7910    3.1760   -3.9670 ca        1 346      0.180600
     23 C2          1.7160    3.4260   -5.0160 ca        1 346     -0.162000
     24 C3          1.4220    2.9350   -6.2790 ca        1 346     -0.057500
     25 C4          0.1930    2.2900   -6.4920 ca        1 346     -0.324900
     26 C7          0.1570    1.0810   -7.3370 ce        1 346      0.624800
     27 N1          0.4870   -0.0890   -6.4590 nz        1 346     -0.861600
     28 N2         -0.0790    0.8850   -8.5800 n2        1 346     -0.758100
     29 C5         -0.8630    2.4920   -5.5850 ca        1 346     -0.057500
     30 C6         -0.5710    2.9660   -4.3170 ca        1 346     -0.162000
     31 H26         2.5250   -1.2980    2.8100 h1        1 346      0.066700
     32 H272        0.1880   -0.0940    4.1460 hc        1 346      0.072200
     33 H271        0.8330   -1.7750    4.3480 hc        1 346      0.072200
     34 H292        1.6150   -1.1590    6.4890 h1        1 346      0.050200
     35 H291        1.1450    0.5850    6.1810 h1        1 346      0.050200
     36 H312        3.5570    1.2480    4.0300 h1        1 346      0.056700
     37 H311        4.3300   -0.4200    4.0790 h1        1 346      0.056700
     38 H8          4.2300   -0.0440    1.7480 ha        1 346      0.145000
     39 H241        5.7700   -1.3360    0.6960 h1        1 346      0.036700
     40 H242        6.3060    0.3920    0.9910 h1        1 346      0.036700
     41 H303        8.2370   -1.0580    0.2690 hc        1 346      0.049700
     42 H302        7.8860    0.2260   -0.9720 hc        1 346      0.049700
     43 H301        7.3550   -1.4790   -1.2660 hc        1 346      0.049700
     44 H10         3.4970    0.7830   -2.4650 ha        1 346      0.190000
     45 H14        -0.1610    1.5730   -1.8460 h1        1 346      0.098700
     46 H33         2.1720    3.1740   -2.5070 hn        1 346      0.384800
     47 H2          2.7010    3.8640   -4.8030 ha        1 346      0.159000
     48 H3          2.1850    2.9570   -7.0720 ha        1 346      0.140500
     49 H12         1.3920    0.0980   -5.9530 hn        1 346      0.486133
     50 H11        -0.2170   -0.1530   -5.6820 hn        1 346      0.486133
     51 H21        -0.2960    1.7000   -9.1150 hn        1 346      0.448400
     52 H5         -1.8860    2.1800   -5.8400 ha        1 346      0.140500
     53 H6         -1.3560    3.0370   -3.5500 ha        1 346      0.159000
     54 H13         0.5350   -0.9680   -6.9680 hn        1 346      0.486133
@<TRIPOS>BOND
     1    1    2 1   
     2    2    3 ar  
     3    2   16 ar  
     4    3    4 1   
     5    3   10 ar  
     6    4    5 1   
     7    5    6 1   
     8    5    9 1   
     9    5   31 1   
    10    6    7 1   
    11    6   32 1   
    12    6   33 1   
    13    7    8 1   
    14    7   34 1   
    15    7   35 1   
    16    8    9 1   
    17    9   36 1   
    18    9   37 1   
    19   10   11 ar  
    20   10   38 1   
    21   11   12 1   
    22   11   15 ar  
    23   12   13 1   
    24   13   14 1   
    25   13   39 1   
    26   13   40 1   
    27   14   41 1   
    28   14   42 1   
    29   14   43 1   
    30   15   16 ar  
    31   15   44 1   
    32   16   17 1   
    33   17   18 1   
    34   17   21 1   
    35   17   45 1   
    36   18   19 1   
    37   18   20 1   
    38   21   22 1   
    39   21   46 1   
    40   22   23 ar  
    41   22   30 ar  
    42   23   24 ar  
    43   23   47 1   
    44   24   25 ar  
    45   24   48 1   
    46   25   26 1   
    47   25   29 ar  
    48   26   27 1   
    49   26   28 2   
    50   27   49 1   
    51   27   50 1   
    52   27   54 1   
    53   28   51 1   
    54   29   30 ar  
    55   29   52 1   
    56   30   53 1   
@<TRIPOS>SUBSTRUCTURE
     1 346         1 TEMP              0 ****  ****    0 ROOT
