@<TRIPOS>MOLECULE
346
   54    56     1     0     0
SMALL
bcc


@<TRIPOS>ATOM
      1 F30         0.0580    1.3180    0.5020 f         1 346     -0.124900
      2 C12         1.3390    1.0120    0.1960 ca        1 346      0.094900
      3 C13         2.2240    0.6000    1.2210 ca        1 346      0.101100
      4 O25         1.7010    0.6020    2.5020 os        1 346     -0.316900
      5 C26         2.2150   -0.4050    3.3850 c3        1 346      0.114100
      6 C27         1.0930   -0.7340    4.3770 c3        1 346     -0.114400
      7 C29         1.6370   -0.3520    5.7480 c3        1 346      0.126400
      8 O28         3.0190   -0.0000    5.6160 os        1 346     -0.421600
      9 C31         3.3620    0.1590    4.2390 c3        1 346      0.100400
     10 C8          3.5580    0.2850    0.9410 ca        1 346     -0.240000
     11 C9          4.0060    0.3770   -0.3800 ca        1 346      0.135100
     12 O23         5.2960    0.0990   -0.7860 os        1 346     -0.324900
     13 C24         6.1970   -0.3420    0.2380 c3        1 346      0.127400
     14 C30         7.5160   -0.6010   -0.4540 c3        1 346     -0.100100
     15 C10         3.1420    0.7820   -1.4140 ca        1 346     -0.141000
     16 C11         1.8170    1.1020   -1.1300 ca        1 346     -0.063300
     17 C14         0.8960    1.5420   -2.2330 c3        1 346      0.132800
     18 C15         0.9590    0.5570   -3.4370 c         1 346      0.894600
     19 O2         -0.0840   -0.0910   -3.7550 o         1 346     -0.847800
     20 O1          2.0030    0.4750   -4.1590 o         1 346     -0.847800
     21 N3          1.1660    2.9450   -2.6300 nh        1 346     -0.679600
     22 C1          0.7620    3.1600   -3.9670 ca        1 346      0.180600
     23 C2          1.6890    3.4320   -5.0080 ca        1 346     -0.162000
     24 C3          1.4130    2.9410   -6.2750 ca        1 346     -0.057500
     25 C4          0.1970    2.2730   -6.4980 ca        1 346     -0.324900
     26 C7          0.1900    1.0670   -7.3480 ce        1 346      0.624800
     27 N1          0.5370   -0.1000   -6.4740 n4        1 346     -0.861600
     28 N2         -0.0350    0.8720   -8.5940 n2        1 346     -0.758100
     29 C5         -0.8680    2.4520   -5.5980 ca        1 346     -0.057500
     30 C6         -0.5930    2.9260   -4.3260 ca        1 346     -0.162000
     31 H26         2.5360   -1.3080    2.8040 h1        1 346      0.066700
     32 H272        0.1710   -0.1510    4.1300 hc        1 346      0.072200
     33 H271        0.8430   -1.8210    4.3290 hc        1 346      0.072200
     34 H292        1.1020    0.5360    6.1740 h1        1 346      0.050200
     35 H291        1.6020   -1.2010    6.4770 h1        1 346      0.050200
     36 H312        3.5150    1.2510    4.0400 h1        1 346      0.056700
     37 H311        4.3180   -0.4030    4.0870 h1        1 346      0.056700
     38 H8          4.2260   -0.0180    1.7580 ha        1 346      0.145000
     39 H241        5.7960   -1.2770    0.7110 h1        1 346      0.036700
     40 H242        6.2980    0.4600    1.0160 h1        1 346      0.036700
     41 H303        7.3960   -1.3830   -1.2420 hc        1 346      0.049700
     42 H302        7.8920    0.3310   -0.9380 hc        1 346      0.049700
     43 H301        8.2610   -0.9500    0.3000 hc        1 346      0.049700
     44 H10         3.5040    0.8110   -2.4570 ha        1 346      0.191000
     45 H14        -0.1720    1.5290   -1.8580 h1        1 346      0.098700
     46 H33         2.1340    3.1780   -2.4980 hn        1 346      0.384800
     47 H2          2.6640    3.8880   -4.7870 ha        1 346      0.159000
     48 H3          2.1790    2.9810   -7.0630 ha        1 346      0.140500
     49 H12        -0.1710   -0.1810   -5.7020 hn        1 346      0.486133
     50 H11         0.6060   -0.9750   -6.9860 hn        1 346      0.486133
     51 H21        -0.2640    1.6850   -9.1270 hn        1 346      0.448400
     52 H5         -1.8830    2.1210   -5.8600 ha        1 346      0.140500
     53 H6         -1.3850    2.9780   -3.5630 ha        1 346      0.159000
     54 H13         1.4350    0.1030   -5.9610 hn        1 346      0.486133
@<TRIPOS>BOND
     1    1    2 1   
     2    2    3 ar  
     3    2   16 ar  
     4    3    4 1   
     5    3   10 ar  
     6    4    5 1   
     7    5    6 1   
     8    5    9 1   
     9    5   31 1   
    10    6    7 1   
    11    6   32 1   
    12    6   33 1   
    13    7    8 1   
    14    7   34 1   
    15    7   35 1   
    16    8    9 1   
    17    9   36 1   
    18    9   37 1   
    19   10   11 ar  
    20   10   38 1   
    21   11   12 1   
    22   11   15 ar  
    23   12   13 1   
    24   13   14 1   
    25   13   39 1   
    26   13   40 1   
    27   14   41 1   
    28   14   42 1   
    29   14   43 1   
    30   15   16 ar  
    31   15   44 1   
    32   16   17 1   
    33   17   18 1   
    34   17   21 1   
    35   17   45 1   
    36   18   19 1   
    37   18   20 1   
    38   21   22 1   
    39   21   46 1   
    40   22   23 ar  
    41   22   30 ar  
    42   23   24 ar  
    43   23   47 1   
    44   24   25 ar  
    45   24   48 1   
    46   25   26 1   
    47   25   29 ar  
    48   26   27 1   
    49   26   28 2   
    50   27   49 1   
    51   27   50 1   
    52   27   54 1   
    53   28   51 1   
    54   29   30 ar  
    55   29   52 1   
    56   30   53 1   
@<TRIPOS>SUBSTRUCTURE
     1 346         1 TEMP              0 ****  ****    0 ROOT
