@<TRIPOS>MOLECULE
346
   55    57     1     0     0
SMALL
bcc


@<TRIPOS>ATOM
      1 F30         0.3820    1.9210    0.2750 f         1 346     -0.146900
      2 C12         1.4440    1.0970    0.0820 ca        1 346      0.027900
      3 C13         2.2360    0.6810    1.1780 ca        1 346      0.158100
      4 O25         1.8480    1.1910    2.3920 os        1 346     -0.308900
      5 C26         2.4710    0.6410    3.5670 c3        1 346      0.110100
      6 C27         1.6270    1.1350    4.7480 c3        1 346     -0.111400
      7 C29         2.5690    1.9810    5.5960 c3        1 346      0.124400
      8 O28         3.8210    2.1110    4.9090 os        1 346     -0.408600
      9 C31         3.8720    1.2280    3.7920 c3        1 346      0.100400
     10 C8          3.3380   -0.1610    0.9710 ca        1 346     -0.242000
     11 C9          3.6400   -0.5820   -0.3270 ca        1 346      0.169100
     12 O23         4.6940   -1.3960   -0.6570 os        1 346     -0.315900
     13 C24         5.4980   -1.8820    0.4320 c3        1 346      0.126400
     14 C30         6.5420   -2.7740   -0.1980 c3        1 346     -0.103100
     15 C10         2.8600   -0.1710   -1.4320 ca        1 346     -0.119000
     16 C11         1.7620    0.6520   -1.2240 ca        1 346     -0.124300
     17 C14         0.8570    1.0530   -2.3410 c3        1 346      0.096800
     18 C15         1.1150    0.3220   -3.6970 c         1 346      0.917600
     19 O2          2.1910    0.4980   -4.3360 o         1 346     -0.811300
     20 O1          0.1650   -0.3700   -4.1570 o         1 346     -0.811300
     21 N3          0.9150    2.5800   -2.5160 n4        1 346     -0.634400
     22 C1          0.5990    2.9090   -3.9030 ca        1 346     -0.004400
     23 C2         -0.6910    2.6320   -4.4010 ca        1 346     -0.077000
     24 C3         -0.8060    2.2530   -5.7360 ca        1 346     -0.068000
     25 C4          0.3540    2.1870   -6.5190 ca        1 346     -0.208900
     26 C7          0.4690    1.1180   -7.5420 ce        1 346      0.586800
     27 N1          0.9360   -0.1250   -6.8420 n4        1 346     -0.846600
     28 N2          0.2580    1.0830   -8.8010 n2        1 346     -0.703100
     29 C5          1.5210    2.8530   -6.1200 ca        1 346     -0.068000
     30 C6          1.6510    3.2310   -4.7850 ca        1 346     -0.077000
     31 H26         2.4850   -0.4770    3.4940 h1        1 346      0.069700
     32 H272        0.7590    1.7400    4.3820 hc        1 346      0.078200
     33 H271        1.2270    0.2680    5.3270 hc        1 346      0.078200
     34 H292        2.7800    1.5040    6.5880 h1        1 346      0.060200
     35 H291        2.1890    3.0230    5.7480 h1        1 346      0.060200
     36 H312        4.6140    0.4210    4.0270 h1        1 346      0.058200
     37 H311        4.2200    1.8350    2.9170 h1        1 346      0.058200
     38 H8          3.9550   -0.4730    1.8250 ha        1 346      0.164000
     39 H241        4.8480   -2.4540    1.1450 h1        1 346      0.044700
     40 H242        5.9690   -1.0100    0.9590 h1        1 346      0.044700
     41 H303        6.0580   -3.6220   -0.7390 hc        1 346      0.058367
     42 H302        7.1610   -2.1980   -0.9270 hc        1 346      0.058367
     43 H301        7.2030   -3.1800    0.6050 hc        1 346      0.058367
     44 H10         3.1350   -0.5120   -2.4450 ha        1 346      0.195000
     45 H14        -0.2160    0.8250   -2.0510 hx        1 346      0.122700
     46 H33         1.8630    2.9020   -2.2890 hn        1 346      0.457800
     47 H2         -1.5700    2.5880   -3.7360 ha        1 346      0.175500
     48 H3         -1.7780    1.9140   -6.1290 ha        1 346      0.175000
     49 H12         0.2090   -0.4270   -6.1550 hn        1 346      0.491800
     50 H11         1.7770    0.1010   -6.2610 hn        1 346      0.491800
     51 H21        -0.0550    1.9230   -9.2440 hn        1 346      0.471400
     52 H5          2.3690    2.9810   -6.8110 ha        1 346      0.175000
     53 H6          2.6070    3.6420   -4.4220 ha        1 346      0.175500
     54 H32         0.2520    3.0110   -1.8620 hn        1 346      0.457800
     55 H13         1.1440   -0.8840   -7.4930 hn        1 346      0.491800
@<TRIPOS>BOND
     1    1    2 1   
     2    2    3 ar  
     3    2   16 ar  
     4    3    4 1   
     5    3   10 ar  
     6    4    5 1   
     7    5    6 1   
     8    5    9 1   
     9    5   31 1   
    10    6    7 1   
    11    6   32 1   
    12    6   33 1   
    13    7    8 1   
    14    7   34 1   
    15    7   35 1   
    16    8    9 1   
    17    9   36 1   
    18    9   37 1   
    19   10   11 ar  
    20   10   38 1   
    21   11   12 1   
    22   11   15 ar  
    23   12   13 1   
    24   13   14 1   
    25   13   39 1   
    26   13   40 1   
    27   14   41 1   
    28   14   42 1   
    29   14   43 1   
    30   15   16 ar  
    31   15   44 1   
    32   16   17 1   
    33   17   18 1   
    34   17   21 1   
    35   17   45 1   
    36   18   19 1   
    37   18   20 1   
    38   21   22 1   
    39   21   46 1   
    40   21   54 1   
    41   22   23 ar  
    42   22   30 ar  
    43   23   24 ar  
    44   23   47 1   
    45   24   25 ar  
    46   24   48 1   
    47   25   26 1   
    48   25   29 ar  
    49   26   27 1   
    50   26   28 2   
    51   27   49 1   
    52   27   50 1   
    53   27   55 1   
    54   28   51 1   
    55   29   30 ar  
    56   29   52 1   
    57   30   53 1   
@<TRIPOS>SUBSTRUCTURE
     1 346         1 TEMP              0 ****  ****    0 ROOT
