@<TRIPOS>MOLECULE
346
   53    55     1     0     0
SMALL
bcc


@<TRIPOS>ATOM
      1 F30         0.4490   -1.4950   -0.3330 f         1 346     -0.136900
      2 C12         1.0050   -0.2610   -0.3370 ca        1 346      0.090900
      3 C13         2.2620   -0.0610    0.2710 ca        1 346      0.071100
      4 O25         2.8380   -1.1520    0.9110 os        1 346     -0.324900
      5 C26         4.2120   -1.3770    0.5710 c3        1 346      0.118100
      6 C27         4.4240   -2.8930    0.4850 c3        1 346     -0.118400
      7 C29         5.4630   -3.2220    1.5490 c3        1 346      0.128400
      8 O28         5.9360   -2.0020    2.1320 os        1 346     -0.431600
      9 C31         5.1200   -0.9040    1.7180 c3        1 346      0.101400
     10 C8          2.8650    1.2020    0.3000 ca        1 346     -0.241000
     11 C9          2.1950    2.2730   -0.2950 ca        1 346      0.118100
     12 O23         2.6710    3.5730   -0.3060 os        1 346     -0.324900
     13 C24         4.0380    3.7340    0.0820 c3        1 346      0.129400
     14 C30         4.3850    5.1800   -0.1950 c3        1 346     -0.098100
     15 C10         0.9460    2.0950   -0.9170 ca        1 346     -0.115000
     16 C11         0.3450    0.8390   -0.9360 ca        1 346     -0.018300
     17 C14        -0.9780    0.6650   -1.6390 c3        1 346      0.082800
     18 C15        -0.8260    1.2300   -3.1190 c         1 346      0.918600
     19 O2         -1.0870    2.4500   -3.2990 o         1 346     -0.808800
     20 O1         -0.4690    0.4010   -3.9890 o         1 346     -0.808800
     21 N3         -2.0460    1.3420   -0.9290 nh        1 346     -0.717600
     22 C1         -3.0610    0.6560   -0.2960 ca        1 346      0.219600
     23 C2         -4.3150    1.2930   -0.0670 ca        1 346     -0.228000
     24 C3         -5.3240    0.6510    0.6300 ca        1 346     -0.055000
     25 C4         -5.1460   -0.6510    1.1110 ca        1 346     -0.243900
     26 C7         -6.2600   -1.3480    1.8140 ce        1 346      0.669800
     27 N1         -6.4310   -2.7060    1.4370 nh        1 346     -0.957800
     28 N2         -6.9450   -0.7150    2.7220 n2        1 346     -0.845100
     29 C5         -3.9120   -1.2850    0.9150 ca        1 346     -0.055000
     30 C6         -2.8880   -0.6550    0.2280 ca        1 346     -0.228000
     31 H26         4.4720   -0.8660   -0.3920 h1        1 346      0.070700
     32 H272        4.7840   -3.1760   -0.5330 hc        1 346      0.070200
     33 H271        3.4620   -3.4300    0.6780 hc        1 346      0.070200
     34 H292        6.3650   -3.7340    1.1250 h1        1 346      0.040700
     35 H291        5.0310   -3.8430    2.3760 h1        1 346      0.040700
     36 H312        4.5160   -0.5670    2.5990 h1        1 346      0.054200
     37 H311        5.8220   -0.0950    1.3940 h1        1 346      0.054200
     38 H8          3.8400    1.3180    0.7890 ha        1 346      0.132000
     39 H241        4.6890    3.0420   -0.5140 h1        1 346      0.030700
     40 H242        4.1440    3.4960    1.1740 h1        1 346      0.030700
     41 H303        3.7150    5.8580    0.3850 hc        1 346      0.044033
     42 H302        4.2590    5.4080   -1.2800 hc        1 346      0.044033
     43 H301        5.4440    5.3670    0.1010 hc        1 346      0.044033
     44 H10         0.4450    2.9400   -1.4240 ha        1 346      0.194000
     45 H14        -1.2000   -0.4370   -1.7370 h1        1 346      0.072700
     46 H33        -2.3030    2.2070   -1.3690 hn        1 346      0.439800
     47 H2         -4.4860    2.3110   -0.4480 ha        1 346      0.140000
     48 H3         -6.2790    1.1710    0.8020 ha        1 346      0.127500
     49 H12        -7.3510   -3.0710    1.5280 hn        1 346      0.387300
     50 H11        -5.9890   -2.9540    0.5810 hn        1 346      0.387300
     51 H21        -7.6920   -1.2280    3.1410 hn        1 346      0.362400
     52 H5         -3.7380   -2.2930    1.3220 ha        1 346      0.127500
     53 H6         -1.9240   -1.1730    0.1010 ha        1 346      0.140000
@<TRIPOS>BOND
     1    1    2 1   
     2    2    3 ar  
     3    2   16 ar  
     4    3    4 1   
     5    3   10 ar  
     6    4    5 1   
     7    5    6 1   
     8    5    9 1   
     9    5   31 1   
    10    6    7 1   
    11    6   32 1   
    12    6   33 1   
    13    7    8 1   
    14    7   34 1   
    15    7   35 1   
    16    8    9 1   
    17    9   36 1   
    18    9   37 1   
    19   10   11 ar  
    20   10   38 1   
    21   11   12 1   
    22   11   15 ar  
    23   12   13 1   
    24   13   14 1   
    25   13   39 1   
    26   13   40 1   
    27   14   41 1   
    28   14   42 1   
    29   14   43 1   
    30   15   16 ar  
    31   15   44 1   
    32   16   17 1   
    33   17   18 1   
    34   17   21 1   
    35   17   45 1   
    36   18   19 1   
    37   18   20 1   
    38   21   22 1   
    39   21   46 1   
    40   22   23 ar  
    41   22   30 ar  
    42   23   24 ar  
    43   23   47 1   
    44   24   25 ar  
    45   24   48 1   
    46   25   26 1   
    47   25   29 ar  
    48   26   27 1   
    49   26   28 2   
    50   27   49 1   
    51   27   50 1   
    52   28   51 1   
    53   29   30 ar  
    54   29   52 1   
    55   30   53 1   
@<TRIPOS>SUBSTRUCTURE
     1 346         1 TEMP              0 ****  ****    0 ROOT
