@<TRIPOS>MOLECULE
346
   53    50     1     0     0
SMALL
bcc


@<TRIPOS>ATOM
      1 F30        -1.4740    1.1200    1.4750 f         1 346     -0.098000
      2 C12        -0.1380    1.0330    1.4710 c2        1 346      0.057000
      3 C13         0.5590    1.0090    2.6690 c2        1 346      0.013000
      4 O25        -0.1330    1.1680    3.8860 os        1 346     -0.217000
      5 C26        -0.6230   -0.0280    4.2870 c3        1 346      0.006000
      6 C27        -2.0860    0.0910    4.6130 c3        1 346     -0.189000
      7 C29        -2.2220   -0.4830    5.8080 c3        1 346     -0.021000
      8 O28        -0.8170   -0.3340    6.5370 os        1 346     -0.289000
      9 C31         0.0750   -0.4830    5.6270 c3        1 346     -0.050000
     10 C8          1.9450    0.9590    2.6640 c1        1 346     -0.200000
     11 C9          2.6340    0.9330    1.4610 c1        1 346      0.058000
     12 O23         4.0390    1.0070    1.4560 os        1 346     -0.218000
     13 C24         4.6780   -0.2440    1.5600 c3        1 346     -0.020000
     14 C30         6.1360   -0.0990    1.1790 c3        1 346     -0.218000
     15 C10         1.9370    0.9570    0.2620 c1        1 346     -0.123000
     16 C11         0.5510    1.0070    0.2670 c1        1 346     -0.024000
     17 C14        -0.2030    1.1560   -1.0370 c3        1 346     -0.065000
     18 C15        -1.2110    2.2750   -0.9120 c2        1 346      0.350000
     19 O2         -2.3670    2.0350   -0.4760 o         1 346     -0.535500
     20 O1         -0.8820    3.4550   -1.2070 o         1 346     -0.535500
     21 N3         -0.8780   -0.0580   -1.3350 n3        1 346     -0.279000
     22 C1         -1.2810   -0.3390   -2.6710 c2        1 346      0.160000
     23 C2         -2.6130   -0.6020   -2.9520 c2        1 346     -0.240000
     24 C3         -2.9950   -0.9510   -4.2390 c1        1 346     -0.059000
     25 C4         -2.0440   -1.0380   -5.2440 c1        1 346     -0.225000
     26 C7         -2.4670   -1.3820   -6.6570 c2        1 346      0.140000
     27 N1         -2.6010   -0.3560   -7.6260 n3        1 346     -0.337000
     28 N2         -2.7080   -2.6250   -6.9830 n1        1 346     -0.342000
     29 C5         -0.7130   -0.7760   -4.9640 c1        1 346     -0.045000
     30 C6         -0.3300   -0.4260   -3.6770 c1        1 346     -0.238000
     31 H26        -0.4860   -0.7000    3.5900 h1        1 346      0.117000
     32 H272       -2.3490    1.0340    4.6570 hc        1 346      0.107500
     33 H271       -2.6230   -0.3820    3.9450 hc        1 346      0.107500
     34 H292       -2.4460   -1.4310    5.7020 h1        1 346      0.078000
     35 H291       -2.9190   -0.0270    6.3240 h1        1 346      0.078000
     36 H312        0.8510    0.0830    5.8160 h1        1 346      0.095500
     37 H311        0.3450   -1.4240    5.5670 h1        1 346      0.095500
     38 H8          2.4350    0.9270    3.5070 ha        1 346      0.140000
     39 H241        4.2440   -0.8820    0.9570 h1        1 346      0.073500
     40 H242        4.6120   -0.5680    2.4820 h1        1 346      0.073500
     41 H303        6.2060    0.0930    0.2200 hc        1 346      0.082333
     42 H302        6.6110   -0.9320    1.3800 hc        1 346      0.082333
     43 H301        6.5360    0.6370    1.6890 hc        1 346      0.082333
     44 H10         2.4220    0.9540   -0.5850 ha        1 346      0.182000
     45 H14         0.4270    1.3630   -1.7550 h1        1 346      0.104000
     46 H33        -1.0560   -0.6560   -0.6690 hn        1 346      0.253000
     47 H2         -3.2850   -0.5150   -2.2500 ha        1 346      0.132000
     48 H3         -3.9280   -1.1640   -4.4300 ha        1 346      0.118000
     49 H12        -2.7880   -0.5690   -8.4950 hn        1 346      0.184500
     50 H11        -2.5110    0.5200   -7.3800 hn        1 346      0.184500
     51 H21        -2.6220   -3.2850   -6.3580 DU        1 346      0.143000
     52 H5         -0.0430   -0.8380   -5.6720 ha        1 346      0.129000
     53 H6          0.6040   -0.2190   -3.4850 ha        1 346      0.140000
@<TRIPOS>BOND
     1    1    2 1   
     2    2    3 1   
     3    2   16 1   
     4    3    4 1   
     5    3   10 1   
     6    4    5 1   
     7    5    6 1   
     8    5    9 1   
     9    5   31 1   
    10    6    7 1   
    11    6   32 1   
    12    6   33 1   
    13    7    8 1   
    14    7   34 1   
    15    7   35 1   
    16    8    9 1   
    17    9   36 1   
    18    9   37 1   
    19   10   38 1   
    20   11   12 1   
    21   11   15 1   
    22   12   13 1   
    23   13   14 1   
    24   13   39 1   
    25   13   40 1   
    26   14   41 1   
    27   14   42 1   
    28   14   43 1   
    29   15   44 1   
    30   16   17 1   
    31   17   18 1   
    32   17   21 1   
    33   17   45 1   
    34   18   19 1   
    35   18   20 1   
    36   21   22 1   
    37   21   46 1   
    38   22   23 1   
    39   22   30 1   
    40   23   24 1   
    41   23   47 1   
    42   24   48 1   
    43   25   26 1   
    44   25   29 1   
    45   26   27 1   
    46   26   28 1   
    47   27   49 1   
    48   27   50 1   
    49   29   52 1   
    50   30   53 1   
@<TRIPOS>SUBSTRUCTURE
     1 346         1 TEMP              0 ****  ****    0 ROOT
