@<TRIPOS>MOLECULE
347
   63    64     1     0     0
SMALL
bcc


@<TRIPOS>ATOM
      1 C1          9.7200   -3.9080   -1.0840 c3        1 347     -0.030000
      2 C2          8.4640   -3.3530   -0.7020 c1        1 347     -0.079100
      3 C3          7.4100   -2.8910   -0.3740 c1        1 347     -0.190100
      4 C4          6.1360   -2.3690    0.0540 c3        1 347      0.304900
      5 N1          5.6850   -1.2440   -0.7330 nh        1 347     -0.762600
      6 C5          4.6220   -0.4680   -0.3380 ca        1 347      0.262600
      7 C6          4.3340    0.7460   -1.0290 ca        1 347     -0.240500
      8 C7          3.2380    1.5060   -0.6770 ca        1 347      0.038000
      9 C8          2.3700    1.1240    0.3610 ca        1 347     -0.487500
     10 C9          2.6660   -0.0650    1.0490 ca        1 347      0.038000
     11 C10         3.7540   -0.8500    0.7220 ca        1 347     -0.240500
     12 S1          1.0860    2.0640    0.7950 sy        1 347      1.399300
     13 O1          0.7410    1.8510    2.1350 o         1 347     -0.661300
     14 O2          1.2740    3.3920    0.3650 o         1 347     -0.661300
     15 C11        -0.1170    1.3820   -0.2480 c3        1 347     -0.308600
     16 C12        -1.5930    1.7040   -0.0170 c3        1 347     -0.058000
     17 C13        -2.0160    1.1410    1.3460 c3        1 347     -0.105400
     18 C14        -3.5290    1.0340    1.5370 c3        1 347      0.065000
     19 N2         -4.2430    0.4310    0.4230 n         1 347     -0.395800
     20 C15        -3.8940    1.0120   -0.8580 c3        1 347      0.065000
     21 C16        -2.3920    1.0270   -1.1430 c3        1 347     -0.105400
     22 C17        -4.5000   -0.9450    0.5090 c         1 347      0.725100
     23 O3         -4.5600   -1.6120    1.5550 o         1 347     -0.588000
     24 O4         -4.7770   -1.5410   -0.7010 os        1 347     -0.450900
     25 C18        -5.3960   -2.8540   -0.7210 c3        1 347      0.184800
     26 C19        -4.4350   -3.9060   -0.1900 c3        1 347     -0.113100
     27 C20        -6.7050   -2.8520    0.0500 c3        1 347     -0.113100
     28 C21        -5.6570   -3.0790   -2.2100 c3        1 347     -0.113100
     29 C22        -1.9060    3.2050   -0.0840 c         1 347      0.577100
     30 O5         -2.8450    3.7050    0.5590 o         1 347     -0.564100
     31 N3         -1.2490    3.9970   -1.0770 n         1 347     -0.347400
     32 O6         -1.5090    5.3060   -0.9910 oh        1 347     -0.428100
     33 H11         9.7010   -5.0250   -0.9850 hc        1 347      0.063367
     34 H12         9.9530   -3.6520   -2.1510 hc        1 347      0.063367
     35 H13        10.5420   -3.5080   -0.4350 hc        1 347      0.063367
     36 H41         5.3570   -3.1900   -0.0210 h1        1 347      0.064700
     37 H42         6.2140   -2.0720    1.1460 h1        1 347      0.064700
     38 HN1         6.3170   -0.8660   -1.3990 hn        1 347      0.441800
     39 H6          4.9900    1.0830   -1.8460 ha        1 347      0.143500
     40 H7          3.0400    2.4540   -1.2120 ha        1 347      0.153500
     41 H9          2.0120   -0.3690    1.8880 ha        1 347      0.153500
     42 H10         3.9420   -1.7740    1.2890 ha        1 347      0.143500
     43 H111        0.1320    1.6470   -1.3130 h1        1 347      0.111200
     44 H112       -0.0340    0.2600   -0.2100 h1        1 347      0.111200
     45 H131       -1.5570    0.1250    1.4680 hc        1 347      0.066950
     46 H132       -1.6130    1.7970    2.1640 hc        1 347      0.066950
     47 H141       -3.7330    0.4410    2.4730 h1        1 347      0.083450
     48 H142       -3.9610    2.0700    1.6630 h1        1 347      0.083450
     49 H151       -4.4220    0.4620   -1.6850 h1        1 347      0.083450
     50 H152       -4.2710    2.0770   -0.8340 h1        1 347      0.083450
     51 H161       -2.2150    1.5610   -2.1110 hc        1 347      0.066950
     52 H162       -2.0250   -0.0260   -1.2620 hc        1 347      0.066950
     53 H191       -4.2830   -3.7770    0.9090 hc        1 347      0.050811
     54 H192       -4.8550   -4.9220   -0.3830 hc        1 347      0.050811
     55 H193       -3.4490   -3.8170   -0.7040 hc        1 347      0.050811
     56 H201       -7.3470   -2.0040   -0.2880 hc        1 347      0.050811
     57 H202       -7.2440   -3.8120   -0.1330 hc        1 347      0.050811
     58 H203       -6.5150   -2.7460    1.1450 hc        1 347      0.050811
     59 H211       -4.6990   -3.0420   -2.7790 hc        1 347      0.050811
     60 H212       -6.1310   -4.0790   -2.3490 hc        1 347      0.050811
     61 H213       -6.3390   -2.2890   -2.6040 hc        1 347      0.050811
     62 HN3        -0.2350    3.9010   -1.0590 hn        1 347      0.324500
     63 HO6        -2.4690    5.4060   -1.1520 ho        1 347      0.426000
@<TRIPOS>BOND
     1    1    2 1   
     2    1   33 1   
     3    1   34 1   
     4    1   35 1   
     5    2    3 3   
     6    3    4 1   
     7    4    5 1   
     8    4   36 1   
     9    4   37 1   
    10    5    6 1   
    11    5   38 1   
    12    6    7 ar  
    13    6   11 ar  
    14    7    8 ar  
    15    7   39 1   
    16    8    9 ar  
    17    8   40 1   
    18    9   10 ar  
    19    9   12 1   
    20   10   11 ar  
    21   10   41 1   
    22   11   42 1   
    23   12   13 2   
    24   12   14 2   
    25   12   15 1   
    26   15   16 1   
    27   15   43 1   
    28   15   44 1   
    29   16   17 1   
    30   16   21 1   
    31   16   29 1   
    32   17   18 1   
    33   17   45 1   
    34   17   46 1   
    35   18   19 1   
    36   18   47 1   
    37   18   48 1   
    38   19   20 1   
    39   19   22 1   
    40   20   21 1   
    41   20   49 1   
    42   20   50 1   
    43   21   51 1   
    44   21   52 1   
    45   22   23 2   
    46   22   24 1   
    47   24   25 1   
    48   25   26 1   
    49   25   27 1   
    50   25   28 1   
    51   26   53 1   
    52   26   54 1   
    53   26   55 1   
    54   27   56 1   
    55   27   57 1   
    56   27   58 1   
    57   28   59 1   
    58   28   60 1   
    59   28   61 1   
    60   29   30 2   
    61   29   31 1   
    62   31   32 1   
    63   31   62 1   
    64   32   63 1   
@<TRIPOS>SUBSTRUCTURE
     1 347         1 TEMP              0 ****  ****    0 ROOT
