@<TRIPOS>MOLECULE
347
   63    60     1     0     0
SMALL
bcc


@<TRIPOS>ATOM
      1 C1          0.7680   -5.7820   -9.0840 c3        1 347     -0.120000
      2 C2          1.3830   -5.5580   -7.7170 c1        1 347     -0.109000
      3 C3          1.8840   -5.3770   -6.6090 c1        1 347     -0.240000
      4 C4          2.5050   -5.1560   -5.2420 c2        1 347      0.074000
      5 N1          1.5220   -4.6460   -4.3460 n3        1 347     -0.286000
      6 C5          1.5880   -3.2640   -3.9060 c2        1 347      0.155000
      7 C6          2.6040   -2.8630   -3.0260 c2        1 347     -0.219000
      8 C7          2.5630   -1.5890   -2.4440 c1        1 347      0.028000
      9 C8          1.5230   -0.7290   -2.7390 c1        1 347     -0.915000
     10 C9          0.5090   -1.1320   -3.6190 c1        1 347      0.027000
     11 C10         0.5490   -2.4020   -4.1990 c1        1 347     -0.226000
     12 S1          1.3970    0.8380   -1.9010 s4        1 347      2.078800
     13 O1          2.6010    1.1650   -1.2360 o         1 347     -0.547900
     14 O2          1.2950    1.9060   -2.8230 o         1 347     -0.547900
     15 C11         0.0430    0.8230   -0.7880 c2        1 347     -0.848000
     16 C12         0.1980    1.9850    0.2360 c3        1 347     -0.006000
     17 C13         1.0290    1.5720    1.4310 c3        1 347     -0.192500
     18 C14         0.3020    0.6100    2.3580 c3        1 347     -0.040500
     19 N2         -0.9910    1.0940    2.7640 n         1 347     -0.270000
     20 C15        -1.8320    1.5020    1.6580 c3        1 347     -0.040500
     21 C16        -1.1460    2.4770    0.7220 c3        1 347     -0.192500
     22 C17        -1.1640    1.7150    4.0880 c2        1 347      0.387000
     23 O3         -0.2310    2.2810    4.6140 o         1 347     -0.395000
     24 O4         -2.5010    1.8170    4.6720 os        1 347     -0.287000
     25 C18        -2.5300    1.6440    6.1110 c3        1 347      0.114000
     26 C19        -2.5270    2.9960    6.7830 c3        1 347     -0.231667
     27 C20        -3.8410    0.8550    6.5220 c3        1 347     -0.231667
     28 C21        -1.2690    0.8370    6.5670 c3        1 347     -0.231667
     29 C22         0.9420    3.0860   -0.6450 c2        1 347      0.218000
     30 O5          2.0460    2.8430   -1.1240 o         1 347     -0.323000
     31 N3          0.4080    4.4460   -0.7050 n         1 347     -0.185000
     32 O6          1.2030    5.4860   -1.1870 oh        1 347     -0.234000
     33 H11         0.5850   -4.9150   -9.5080 hc        1 347      0.102000
     34 H12        -0.0630   -6.2780   -8.9870 hc        1 347      0.102000
     35 H13         1.3960   -6.2980   -9.6480 hc        1 347      0.102000
     36 H41         2.8500   -6.0080   -4.9000 h4        1 347      0.116000
     37 H42         3.2180   -4.5330   -5.3160 h4        1 347      0.116000
     38 HN1         0.8480   -5.1700   -4.0770 hn        1 347      0.214000
     39 H6          3.3430   -3.4740   -2.8170 ha        1 347      0.148000
     40 H7          3.2820   -1.3060   -1.8210 ha        1 347      0.153000
     41 H9         -0.2070   -0.5400   -3.8220 ha        1 347      0.153000
     42 H10        -0.1600   -2.6810   -4.8140 ha        1 347      0.143000
     43 H111       -0.7890    0.9360   -1.2850 ha        1 347      0.151500
     44 H112        0.0230   -0.0400   -0.3040 ha        1 347      0.151500
     45 H131        1.8370    1.1490    1.1150 hc        1 347      0.117750
     46 H132        1.2670    2.3640    1.9310 hc        1 347      0.117750
     47 H141        0.8630    0.4620    3.1730 h1        1 347      0.108500
     48 H142        0.1860   -0.2450    1.8940 h1        1 347      0.108500
     49 H151       -2.0910    0.7040    1.1470 h1        1 347      0.108500
     50 H152       -2.6410    1.9250    2.0160 h1        1 347      0.108500
     51 H161       -1.0220    3.3130    1.1850 hc        1 347      0.117750
     52 H162       -1.7400    2.6320   -0.0720 hc        1 347      0.117750
     53 H191       -1.7450    3.4840    6.5160 hc        1 347      0.091111
     54 H192       -3.3150    3.4860    6.5250 hc        1 347      0.091111
     55 H193       -2.5210    2.8730    7.7790 hc        1 347      0.091111
     56 H201       -4.5920    1.5100    6.6850 hc        1 347      0.091111
     57 H202       -3.6740    0.3560    7.3210 hc        1 347      0.091111
     58 H203       -4.0960    0.2340    5.7910 hc        1 347      0.091111
     59 H211       -0.4480    1.2510    6.1720 hc        1 347      0.091111
     60 H212       -1.2050    0.8560    7.5440 hc        1 347      0.091111
     61 H213       -1.3460   -0.0970    6.2610 hc        1 347      0.091111
     62 HN3        -0.4210    4.6240   -0.3730 hn        1 347      0.237000
     63 HO6         1.5470    5.9470   -0.4960 ho        1 347      0.226000
@<TRIPOS>BOND
     1    1    2 1   
     2    1   33 1   
     3    1   34 1   
     4    1   35 1   
     5    2    3 1   
     6    4    5 1   
     7    4   36 1   
     8    4   37 1   
     9    5    6 1   
    10    5   38 1   
    11    6    7 1   
    12    6   11 1   
    13    7    8 1   
    14    7   39 1   
    15    8   40 1   
    16    9   10 1   
    17    9   12 1   
    18   10   41 1   
    19   11   42 1   
    20   12   13 1   
    21   12   14 1   
    22   15   16 1   
    23   15   43 1   
    24   15   44 1   
    25   16   17 1   
    26   16   21 1   
    27   16   29 1   
    28   17   18 1   
    29   17   45 1   
    30   17   46 1   
    31   18   19 1   
    32   18   47 1   
    33   18   48 1   
    34   19   20 1   
    35   19   22 1   
    36   20   21 1   
    37   20   49 1   
    38   20   50 1   
    39   21   51 1   
    40   21   52 1   
    41   22   23 1   
    42   22   24 1   
    43   24   25 1   
    44   25   26 1   
    45   25   27 1   
    46   25   28 1   
    47   26   53 1   
    48   26   54 1   
    49   26   55 1   
    50   27   56 1   
    51   27   57 1   
    52   27   58 1   
    53   28   59 1   
    54   28   60 1   
    55   28   61 1   
    56   29   30 1   
    57   29   31 1   
    58   31   32 1   
    59   31   62 1   
    60   32   63 1   
@<TRIPOS>SUBSTRUCTURE
     1 347         1 TEMP              0 ****  ****    0 ROOT
