@<TRIPOS>MOLECULE
347
   65    66     1     0     0
SMALL
bcc


@<TRIPOS>ATOM
      1 C1          0.1160   -1.2590    0.5880 c3        1 347     -0.070000
      2 C2          1.4830   -0.8720    0.6810 c1        1 347      0.074900
      3 C3          2.6350   -0.5440    0.7670 c1        1 347     -0.319100
      4 C4          3.9640   -0.0400    0.8800 c3        1 347      0.248900
      5 N1          4.9850   -1.1450    1.0850 n4        1 347     -0.650400
      6 C5          5.6010   -1.6000   -0.1650 ca        1 347     -0.000400
      7 C6          5.1620   -2.7870   -0.7730 ca        1 347     -0.117500
      8 C7          5.7910   -3.2260   -1.9390 ca        1 347     -0.024500
      9 C8          6.8450   -2.5040   -2.5020 ca        1 347     -0.141500
     10 C9          7.2480   -1.3060   -1.9040 ca        1 347     -0.024500
     11 C10         6.6420   -0.8460   -0.7370 ca        1 347     -0.117500
     12 S1          7.7190   -3.1690   -3.8230 sx        1 347      0.672500
     13 O1          8.4340   -2.0690   -4.4480 o         1 347     -0.502200
     14 O2          6.5050   -3.3940   -5.0220 os        1 347     -0.411600
     15 C11         6.2510   -2.4270   -6.0000 c3        1 347      0.161400
     16 C12         6.7410   -2.8940   -7.3970 c3        1 347     -0.109000
     17 C13         8.2460   -3.1640   -7.3460 c3        1 347     -0.102900
     18 C14         8.8980   -3.4220   -8.7030 c3        1 347      0.038500
     19 N2          8.1070   -2.8980   -9.8160 n         1 347     -0.464800
     20 C15         7.4640   -1.6290   -9.5090 c3        1 347      0.038500
     21 C16         6.4130   -1.7860   -8.4030 c3        1 347     -0.102900
     22 C17         8.7390   -3.0460  -11.0920 c         1 347      0.719100
     23 O3          9.3060   -4.0930  -11.4250 o         1 347     -0.535000
     24 O4          8.5680   -1.9900  -11.9240 os        1 347     -0.438900
     25 C18         9.1640   -2.0210  -13.2690 c3        1 347      0.186800
     26 C19         8.7770   -0.6520  -13.8180 c3        1 347     -0.120100
     27 C20        10.6710   -2.1610  -13.1690 c3        1 347     -0.120100
     28 C21         8.5400   -3.1330  -14.0900 c3        1 347     -0.120100
     29 C22         6.0200   -4.1930   -7.7150 c         1 347      0.580100
     30 O5          5.5170   -5.0040   -6.9650 o         1 347     -0.377100
     31 N3          5.9470   -4.5900   -9.2120 n4        1 347     -0.497300
     32 O6          4.7290   -4.2110   -9.6640 oh        1 347     -0.364300
     33 H11        -0.5460   -0.3520    0.6470 hc        1 347      0.094700
     34 H12        -0.1580   -1.9490    1.4310 hc        1 347      0.094700
     35 H13        -0.0860   -1.7820   -0.3840 hc        1 347      0.094700
     36 H41         4.0430    0.6450    1.7810 hx        1 347      0.119200
     37 H42         4.2630    0.5350   -0.0480 hx        1 347      0.119200
     38 HN1         5.7280   -0.7930    1.7020 hn        1 347      0.464300
     39 H6          4.3350   -3.3820   -0.3490 ha        1 347      0.168500
     40 H7          5.4420   -4.1600   -2.4170 ha        1 347      0.182500
     41 H9          8.0640   -0.7120   -2.3630 ha        1 347      0.182500
     42 H10         6.9900    0.0960   -0.2820 ha        1 347      0.168500
     43 H111        6.7620   -1.4510   -5.7620 h1        1 347      0.085700
     44 H112        5.1350   -2.2880   -6.0240 h1        1 347      0.085700
     45 H131        8.4480   -4.0400   -6.6740 hc        1 347      0.087950
     46 H132        8.7270   -2.2650   -6.8650 hc        1 347      0.087950
     47 H141        9.9320   -2.9690   -8.6900 h1        1 347      0.084950
     48 H142        9.0290   -4.5280   -8.8800 h1        1 347      0.084950
     49 H151        6.9640   -1.2350  -10.4400 h1        1 347      0.084950
     50 H152        8.2290   -0.8640   -9.1880 h1        1 347      0.084950
     51 H161        6.3550   -0.8020   -7.8630 hc        1 347      0.087950
     52 H162        5.4010   -1.9630   -8.8540 hc        1 347      0.087950
     53 H191        9.2020    0.1580  -13.1780 hc        1 347      0.062478
     54 H192        9.1840   -0.5530  -14.8530 hc        1 347      0.062478
     55 H193        7.6670   -0.5430  -13.8480 hc        1 347      0.062478
     56 H201       11.1200   -2.0140  -14.1810 hc        1 347      0.062478
     57 H202       11.0870   -1.3920  -12.4760 hc        1 347      0.062478
     58 H203       10.9520   -3.1770  -12.7980 hc        1 347      0.062478
     59 H211        8.8570   -4.1340  -13.7070 hc        1 347      0.062478
     60 H212        7.4270   -3.0630  -14.0580 hc        1 347      0.062478
     61 H213        8.8760   -3.0360  -15.1510 hc        1 347      0.062478
     62 HN3         6.7210   -4.0820   -9.7400 hn        1 347      0.480800
     63 HO6         4.6510   -4.4660  -10.6110 ho        1 347      0.470000
     64 H121        4.5280   -1.9440    1.5460 hn        1 347      0.464300
     65 H32         6.0580   -5.6150   -9.2920 hn        1 347      0.480800
@<TRIPOS>BOND
     1    1    2 1   
     2    1   33 1   
     3    1   34 1   
     4    1   35 1   
     5    2    3 3   
     6    3    4 1   
     7    4    5 1   
     8    4   36 1   
     9    4   37 1   
    10    5    6 1   
    11    5   38 1   
    12    5   64 1   
    13    6    7 ar  
    14    6   11 ar  
    15    7    8 ar  
    16    7   39 1   
    17    8    9 ar  
    18    8   40 1   
    19    9   10 ar  
    20    9   12 1   
    21   10   11 ar  
    22   10   41 1   
    23   11   42 1   
    24   12   13 2   
    25   12   14 1   
    26   14   15 1   
    27   15   16 1   
    28   15   43 1   
    29   15   44 1   
    30   16   17 1   
    31   16   21 1   
    32   16   29 1   
    33   17   18 1   
    34   17   45 1   
    35   17   46 1   
    36   18   19 1   
    37   18   47 1   
    38   18   48 1   
    39   19   20 1   
    40   19   22 1   
    41   20   21 1   
    42   20   49 1   
    43   20   50 1   
    44   21   51 1   
    45   21   52 1   
    46   22   23 2   
    47   22   24 1   
    48   24   25 1   
    49   25   26 1   
    50   25   27 1   
    51   25   28 1   
    52   26   53 1   
    53   26   54 1   
    54   26   55 1   
    55   27   56 1   
    56   27   57 1   
    57   27   58 1   
    58   28   59 1   
    59   28   60 1   
    60   28   61 1   
    61   29   30 2   
    62   29   31 1   
    63   31   32 1   
    64   31   62 1   
    65   31   65 1   
    66   32   63 1   
@<TRIPOS>SUBSTRUCTURE
     1 347         1 TEMP              0 ****  ****    0 ROOT
