@<TRIPOS>MOLECULE
348
   67    71     1     0     0
SMALL
bcc


@<TRIPOS>ATOM
      1 N1         -5.6300    1.2360    1.4550 nh        1 348     -0.954800
      2 C3         -5.1700    2.3600    0.7320 ce        1 348      0.649800
      3 N2         -5.8800    3.3460    0.2740 n2        1 348     -0.828100
      4 C4         -3.7050    2.3270    0.4210 ca        1 348     -0.136900
      5 C9         -2.9090    3.4400    0.7070 ca        1 348     -0.103000
      6 C8         -1.5440    3.4040    0.4340 ca        1 348     -0.114000
      7 C7         -0.9580    2.2590   -0.1230 ca        1 348     -0.058300
      8 C6         -1.7640    1.1550   -0.4210 ca        1 348     -0.114000
      9 C5         -3.1310    1.1880   -0.1500 ca        1 348     -0.103000
     10 C10         0.5180    2.2830   -0.4090 c3        1 348      0.232800
     11 N11         0.8820    1.5060   -1.6110 n3        1 348     -0.696600
     12 C12         1.0130    2.2970   -2.8340 c3        1 348      0.151800
     13 C13         2.4810    2.3070   -3.2930 c3        1 348     -0.101400
     14 C14         3.2240    1.3550   -2.3650 c3        1 348     -0.094400
     15 C15         2.1750    0.8260   -1.3660 c3        1 348      0.159500
     16 C16         2.5780    1.0270    0.1050 c3        1 348     -0.088700
     17 C17         2.7200   -0.3120    0.8870 c3        1 348      0.098700
     18 N19         1.6000   -0.3580    1.8270 n         1 348     -0.452800
     19 C20         0.7900    0.7900    1.7330 c         1 348      0.700500
     20 O21        -0.2150    0.9680    2.4340 o         1 348     -0.608500
     21 C22         1.4050    1.7900    0.7610 c3        1 348     -0.146700
     22 C23         1.0260   -1.6220    2.2170 c3        1 348      0.135300
     23 C24         0.4990   -2.4790    1.1020 ca        1 348     -0.160300
     24 C32         1.2320   -3.5840    0.6530 ca        1 348     -0.084500
     25 C31         0.7350   -4.4050   -0.3520 ca        1 348     -0.183500
     26 C30        -0.5190   -4.1100   -0.9210 ca        1 348      0.130100
     27 O29        -0.9250   -4.9830   -1.9110 os        1 348     -0.327900
     28 C28        -2.1840   -4.7070   -2.5140 c3        1 348      0.112700
     29 C26        -1.2600   -3.0050   -0.4840 ca        1 348     -0.183500
     30 C25        -0.7420   -2.1960    0.5270 ca        1 348     -0.084500
     31 C18         4.1150   -0.3650    1.5510 c3        1 348     -0.068700
     32 C41         4.2480   -1.4750    2.5710 c3        1 348     -0.092600
     33 C42         5.1680   -0.5480    0.4730 c3        1 348     -0.092600
     34 H1N1       -4.9250    0.7320    1.9430 hn        1 348      0.397300
     35 H1N2       -6.4710    1.3560    1.9720 hn        1 348      0.397300
     36 H2N        -6.8510    3.3380    0.5040 hn        1 348      0.379400
     37 H9         -3.3610    4.3460    1.1370 ha        1 348      0.141500
     38 H8         -0.9230    4.2820    0.6660 ha        1 348      0.139000
     39 H6         -1.3250    0.2500   -0.8710 ha        1 348      0.139000
     40 H5         -3.7570    0.3170   -0.3960 ha        1 348      0.141500
     41 H10         0.7970    3.3760   -0.5570 h1        1 348      0.040700
     42 H121        0.6300    3.3460   -2.7090 h1        1 348      0.054700
     43 H122        0.3720    1.7920   -3.6090 h1        1 348      0.054700
     44 H131        2.9050    3.3390   -3.2280 hc        1 348      0.048700
     45 H132        2.5570    1.9750   -4.3570 hc        1 348      0.048700
     46 H141        4.0600    1.8790   -1.8410 hc        1 348      0.048700
     47 H142        3.6670    0.5020   -2.9360 hc        1 348      0.048700
     48 H15         1.9920   -0.2670   -1.5740 h1        1 348      0.077700
     49 H16         3.5210    1.6230    0.1810 hc        1 348      0.073700
     50 H17         2.6460   -1.1950    0.1850 h1        1 348      0.062700
     51 H22         1.7550    2.6720    1.3560 hc        1 348      0.088700
     52 H231        0.1810   -1.3950    2.9330 h1        1 348      0.070700
     53 H232        1.8150   -2.2000    2.7800 h1        1 348      0.070700
     54 H32         2.2120   -3.8090    1.1020 ha        1 348      0.140500
     55 H31         1.2990   -5.2770   -0.7090 ha        1 348      0.144500
     56 H281       -2.1720   -3.7080   -3.0130 h1        1 348      0.045700
     57 H282       -2.2960   -5.5250   -3.2700 h1        1 348      0.045700
     58 H283       -3.0040   -4.7560   -1.7560 h1        1 348      0.045700
     59 H26        -2.2370   -2.7660   -0.9250 ha        1 348      0.144500
     60 H25        -1.3160   -1.3200    0.8740 ha        1 348      0.140500
     61 H18         4.2950    0.6150    2.0760 hc        1 348      0.053700
     62 H411        3.9220   -2.4520    2.1370 hc        1 348      0.036867
     63 H412        5.3150   -1.5730    2.8880 hc        1 348      0.036867
     64 H413        3.6360   -1.2580    3.4790 hc        1 348      0.036867
     65 H421        6.1870   -0.4390    0.9160 hc        1 348      0.036867
     66 H422        5.0880   -1.5640    0.0170 hc        1 348      0.036867
     67 H423        5.0520    0.2110   -0.3390 hc        1 348      0.036867
@<TRIPOS>BOND
     1    1    2 1   
     2    1   34 1   
     3    1   35 1   
     4    2    3 2   
     5    2    4 1   
     6    3   36 1   
     7    4    5 ar  
     8    4    9 ar  
     9    5    6 ar  
    10    5   37 1   
    11    6    7 ar  
    12    6   38 1   
    13    7    8 ar  
    14    7   10 1   
    15    8    9 ar  
    16    8   39 1   
    17    9   40 1   
    18   10   11 1   
    19   10   21 1   
    20   10   41 1   
    21   11   12 1   
    22   11   15 1   
    23   12   13 1   
    24   12   42 1   
    25   12   43 1   
    26   13   14 1   
    27   13   44 1   
    28   13   45 1   
    29   14   15 1   
    30   14   46 1   
    31   14   47 1   
    32   15   16 1   
    33   15   48 1   
    34   16   17 1   
    35   16   21 1   
    36   16   49 1   
    37   17   18 1   
    38   17   31 1   
    39   17   50 1   
    40   18   19 1   
    41   18   22 1   
    42   19   20 2   
    43   19   21 1   
    44   21   51 1   
    45   22   23 1   
    46   22   52 1   
    47   22   53 1   
    48   23   24 ar  
    49   23   30 ar  
    50   24   25 ar  
    51   24   54 1   
    52   25   26 ar  
    53   25   55 1   
    54   26   27 1   
    55   26   29 ar  
    56   27   28 1   
    57   28   56 1   
    58   28   57 1   
    59   28   58 1   
    60   29   30 ar  
    61   29   59 1   
    62   30   60 1   
    63   31   32 1   
    64   31   33 1   
    65   31   61 1   
    66   32   62 1   
    67   32   63 1   
    68   32   64 1   
    69   33   65 1   
    70   33   66 1   
    71   33   67 1   
@<TRIPOS>SUBSTRUCTURE
     1 348         1 TEMP              0 ****  ****    0 ROOT
