@<TRIPOS>MOLECULE
348
   68    72     1     0     0
SMALL
bcc


@<TRIPOS>ATOM
      1 N1          1.7270   -1.5300    0.7070 nz        1 348     -0.896600
      2 C3          2.3580   -0.1240    0.6600 ce        1 348      0.641800
      3 N2          2.4670    0.6650    1.6390 n2        1 348     -0.674100
      4 C4          2.8180    0.1110   -0.7250 ca        1 348     -0.224900
      5 C9          4.1790    0.0080   -1.0280 ca        1 348     -0.087000
      6 C8          4.5850    0.0800   -2.3580 ca        1 348     -0.099500
      7 C7          3.6400    0.2450   -3.3820 ca        1 348      0.001700
      8 C6          2.2920    0.4480   -3.0540 ca        1 348     -0.099500
      9 C5          1.8770    0.3760   -1.7280 ca        1 348     -0.087000
     10 C10         4.1190    0.1540   -4.8070 c3        1 348      0.216800
     11 N11         3.2970    0.9260   -5.7530 n3        1 348     -0.706600
     12 C12         3.8400    2.2380   -6.1120 c3        1 348      0.148800
     13 C13         4.2200    2.2520   -7.6010 c3        1 348     -0.099400
     14 C14         3.7350    0.9290   -8.1790 c3        1 348     -0.093400
     15 C15         3.1410    0.1350   -6.9990 c3        1 348      0.159500
     16 C16         3.7910   -1.2470   -6.8040 c3        1 348     -0.090700
     17 C17         2.8050   -2.4270   -7.0450 c3        1 348      0.102700
     18 N19         2.4510   -2.9280   -5.7150 n         1 348     -0.447800
     19 C20         3.1550   -2.2800   -4.7020 c         1 348      0.707500
     20 O21         3.0060   -2.5230   -3.4900 o         1 348     -0.672500
     21 C22         4.1730   -1.3120   -5.3070 c3        1 348     -0.148700
     22 C23         1.1930   -3.5840   -5.4660 c3        1 348      0.143300
     23 C24        -0.0330   -2.8450   -5.9230 ca        1 348     -0.164300
     24 C32        -0.8820   -3.4310   -6.8720 ca        1 348     -0.086500
     25 C31        -2.0450   -2.7880   -7.2740 ca        1 348     -0.181500
     26 C30        -2.3640   -1.5310   -6.7220 ca        1 348      0.140100
     27 O29        -3.5370   -0.9780   -7.1870 os        1 348     -0.317900
     28 C28        -3.8740    0.3100   -6.6830 c3        1 348      0.111700
     29 C26        -1.5200   -0.9340   -5.7770 ca        1 348     -0.181500
     30 C25        -0.3610   -1.6000   -5.3840 ca        1 348     -0.086500
     31 C18         3.4720   -3.4650   -7.9760 c3        1 348     -0.068700
     32 C41         2.7490   -4.7940   -8.0040 c3        1 348     -0.095100
     33 C42         3.5320   -2.8970   -9.3820 c3        1 348     -0.095100
     34 H1N1        2.4500   -2.2130    0.4570 hn        1 348      0.457133
     35 H1N2        0.9930   -1.5720   -0.0090 hn        1 348      0.457133
     36 H2N         2.1580    0.4600    2.5640 hn        1 348      0.458400
     37 H9          4.9240   -0.1350   -0.2300 ha        1 348      0.142500
     38 H8          5.6540   -0.0190   -2.6030 ha        1 348      0.165000
     39 H6          1.5500    0.6460   -3.8460 ha        1 348      0.165000
     40 H5          0.8170    0.5300   -1.4770 ha        1 348      0.142500
     41 H10         5.1920    0.5300   -4.8140 h1        1 348      0.056700
     42 H121        4.7200    2.5260   -5.4770 h1        1 348      0.055200
     43 H122        3.0190    2.9830   -5.9170 h1        1 348      0.055200
     44 H131        5.3260    2.3590   -7.7220 hc        1 348      0.058200
     45 H132        3.7370    3.1180   -8.1160 hc        1 348      0.058200
     46 H141        2.9480    1.0960   -8.9550 hc        1 348      0.058200
     47 H142        4.5730    0.3730   -8.6650 hc        1 348      0.058200
     48 H15         2.0300    0.0220   -7.1520 h1        1 348      0.081700
     49 H16         4.6980   -1.3560   -7.4470 hc        1 348      0.086700
     50 H17         1.8640   -2.0650   -7.5550 h1        1 348      0.074700
     51 H22         5.1970   -1.7320   -5.1430 hc        1 348      0.096700
     52 H231        1.2240   -4.5950   -5.9700 h1        1 348      0.069200
     53 H232        1.1150   -3.7580   -4.3520 h1        1 348      0.069200
     54 H32        -0.6280   -4.4110   -7.3060 ha        1 348      0.132500
     55 H31        -2.7210   -3.2400   -8.0150 ha        1 348      0.149000
     56 H281       -3.0840    1.0560   -6.9430 h1        1 348      0.048700
     57 H282       -4.8330    0.5500   -7.2090 h1        1 348      0.048700
     58 H283       -4.0300    0.2710   -5.5770 h1        1 348      0.048700
     59 H26        -1.7600    0.0480   -5.3480 ha        1 348      0.149000
     60 H25         0.3070   -1.1340   -4.6430 ha        1 348      0.132500
     61 H18         4.5220   -3.6460   -7.6100 hc        1 348      0.053700
     62 H411        1.6540   -4.6460   -8.1670 hc        1 348      0.041533
     63 H412        2.9040   -5.3530   -7.0500 hc        1 348      0.041533
     64 H413        3.1450   -5.4230   -8.8390 hc        1 348      0.041533
     65 H421        2.5050   -2.8120   -9.8130 hc        1 348      0.041533
     66 H422        4.1330   -3.5720  -10.0370 hc        1 348      0.041533
     67 H423        4.0030   -1.8850   -9.3920 hc        1 348      0.041533
     68 H13         1.3310   -1.7700    1.6150 hn        1 348      0.457133
@<TRIPOS>BOND
     1    1    2 1   
     2    1   34 1   
     3    1   35 1   
     4    1   68 1   
     5    2    3 2   
     6    2    4 1   
     7    3   36 1   
     8    4    5 ar  
     9    4    9 ar  
    10    5    6 ar  
    11    5   37 1   
    12    6    7 ar  
    13    6   38 1   
    14    7    8 ar  
    15    7   10 1   
    16    8    9 ar  
    17    8   39 1   
    18    9   40 1   
    19   10   11 1   
    20   10   21 1   
    21   10   41 1   
    22   11   12 1   
    23   11   15 1   
    24   12   13 1   
    25   12   42 1   
    26   12   43 1   
    27   13   14 1   
    28   13   44 1   
    29   13   45 1   
    30   14   15 1   
    31   14   46 1   
    32   14   47 1   
    33   15   16 1   
    34   15   48 1   
    35   16   17 1   
    36   16   21 1   
    37   16   49 1   
    38   17   18 1   
    39   17   31 1   
    40   17   50 1   
    41   18   19 1   
    42   18   22 1   
    43   19   20 2   
    44   19   21 1   
    45   21   51 1   
    46   22   23 1   
    47   22   52 1   
    48   22   53 1   
    49   23   24 ar  
    50   23   30 ar  
    51   24   25 ar  
    52   24   54 1   
    53   25   26 ar  
    54   25   55 1   
    55   26   27 1   
    56   26   29 ar  
    57   27   28 1   
    58   28   56 1   
    59   28   57 1   
    60   28   58 1   
    61   29   30 ar  
    62   29   59 1   
    63   30   60 1   
    64   31   32 1   
    65   31   33 1   
    66   31   61 1   
    67   32   62 1   
    68   32   63 1   
    69   32   64 1   
    70   33   65 1   
    71   33   66 1   
    72   33   67 1   
@<TRIPOS>SUBSTRUCTURE
     1 348         1 TEMP              0 ****  ****    0 ROOT
