@<TRIPOS>MOLECULE
348
   67    66     1     0     0
SMALL
bcc


@<TRIPOS>ATOM
      1 N1         -1.4750    1.6400    5.8600 n3        1 348     -0.394000
      2 C3         -0.1620    2.0680    5.5680 c2        1 348      0.127000
      3 N2          0.5560    2.6510    6.4940 n1        1 348     -0.295000
      4 C4          0.4210    1.8480    4.1730 c2        1 348     -0.053000
      5 C9          0.1340    2.7410    3.1510 c2        1 348     -0.116000
      6 C8          0.6690    2.5390    1.8790 c1        1 348     -0.106000
      7 C7          1.4910    1.4400    1.6370 c1        1 348     -0.059000
      8 C6          1.7730    0.5560    2.6560 c1        1 348     -0.118000
      9 C5          1.2360    0.7600    3.9310 c1        1 348     -0.089000
     10 C10         2.1900    1.2790    0.2560 c3        1 348      0.030000
     11 N11         1.8420    2.5540   -0.7130 n3        1 348     -0.226000
     12 C12         2.3490    4.0320   -1.0510 c3        1 348     -0.083000
     13 C13         2.9640    3.9600   -2.3140 c3        1 348     -0.180000
     14 C14         2.2370    2.7010   -3.0790 c3        1 348     -0.174000
     15 C15         1.4090    1.9750   -1.9930 c3        1 348     -0.033000
     16 C16         1.7330    0.6200   -1.9220 c3        1 348     -0.126000
     17 C17         0.7570   -0.1490   -2.5170 c3        1 348      0.036000
     18 N19        -0.3000   -0.4410   -1.3770 n         1 348     -0.323000
     19 C20         0.3860    0.0250   -0.0290 c2        1 348      0.312000
     20 O21        -0.0440   -0.1430    1.0740 o         1 348     -0.342000
     21 C22         1.7230    0.2420   -0.3660 c3        1 348     -0.140000
     22 C23        -1.7240   -0.6930   -1.5780 c3        1 348      0.031000
     23 C24        -2.1850   -1.8070   -0.6500 c2        1 348     -0.129000
     24 C32        -2.4130   -1.5380    0.6870 c2        1 348     -0.072000
     25 C31        -3.0090   -2.5030    1.5020 c1        1 348     -0.206000
     26 C30        -3.3770   -3.7470    0.9650 c1        1 348      0.080000
     27 O29        -3.8010   -4.7950    1.8310 os        1 348     -0.212000
     28 C28        -5.2040   -4.8460    2.0290 c3        1 348     -0.076000
     29 C26        -3.1470   -4.0160   -0.3760 c1        1 348     -0.162000
     30 C25        -2.5530   -3.0530   -1.1880 c1        1 348     -0.099000
     31 C18         1.3350   -1.4300   -3.0270 c3        1 348     -0.109000
     32 C41         0.1960   -2.4220   -3.3230 c3        1 348     -0.217000
     33 C42         2.1470   -1.1500   -4.3520 c3        1 348     -0.217000
     34 H1N1       -1.8390    1.8100    6.6800 hn        1 348      0.192500
     35 H1N2       -1.9460    1.1580    5.2420 hn        1 348      0.192500
     36 H2N         0.2060    2.7820    7.3320 DU        1 348      0.136000
     37 H9         -0.4590    3.5310    3.3270 ha        1 348      0.141000
     38 H8          0.4680    3.1650    1.1590 ha        1 348      0.143000
     39 H6          2.3390   -0.1990    2.4900 ha        1 348      0.132000
     40 H5          1.4320    0.1470    4.6360 ha        1 348      0.146000
     41 H10         3.1960    1.1940    0.3780 h1        1 348      0.087000
     42 H121        1.5600    4.6760   -1.0830 h1        1 348      0.093000
     43 H122        3.0020    4.3290   -0.3720 h1        1 348      0.093000
     44 H131        3.9410    3.7870   -2.2150 hc        1 348      0.089000
     45 H132        2.8160    4.7820   -2.8040 hc        1 348      0.089000
     46 H141        1.6410    3.0330   -3.7970 hc        1 348      0.088500
     47 H142        2.9220    2.0890   -3.4570 hc        1 348      0.088500
     48 H15         0.4410    2.1050   -2.1340 h1        1 348      0.112000
     49 H16         2.5980    0.4470   -2.3170 hc        1 348      0.115000
     50 H17         0.3100    0.3770   -3.2910 h1        1 348      0.089000
     51 H22         2.2940   -0.5910   -0.1820 hc        1 348      0.128000
     52 H231       -2.2340    0.1290   -1.3850 h1        1 348      0.094000
     53 H232       -1.8740   -0.9550   -2.4880 h1        1 348      0.094000
     54 H32        -2.1520   -0.6540    1.0710 ha        1 348      0.164000
     55 H31        -3.1670   -2.3160    2.4310 ha        1 348      0.138000
     56 H281       -5.5280   -3.9580    2.3030 h1        1 348      0.083333
     57 H282       -5.6360   -5.1070    1.2050 h1        1 348      0.083333
     58 H283       -5.4080   -5.4930    2.7220 h1        1 348      0.083333
     59 H26        -3.4120   -4.9130   -0.7640 ha        1 348      0.147000
     60 H25        -2.3880   -3.2480   -2.1520 ha        1 348      0.129000
     61 H18         1.9250   -1.8050   -2.3590 hc        1 348      0.099000
     62 H411       -0.5780   -1.9330   -3.6900 hc        1 348      0.078333
     63 H412       -0.0750   -2.8860   -2.4730 hc        1 348      0.078333
     64 H413        0.5050   -3.0890   -3.9770 hc        1 348      0.078333
     65 H421        2.2840   -1.9980   -4.8410 hc        1 348      0.078333
     66 H422        1.6510   -0.5330   -4.9080 hc        1 348      0.078333
     67 H423        3.0090   -0.7630   -4.1280 hc        1 348      0.078333
@<TRIPOS>BOND
     1    1    2 1   
     2    1   34 1   
     3    1   35 1   
     4    2    3 1   
     5    2    4 1   
     6    4    5 1   
     7    4    9 1   
     8    5    6 1   
     9    5   37 1   
    10    6   38 1   
    11    7    8 1   
    12    7   10 1   
    13    8   39 1   
    14    9   40 1   
    15   10   11 1   
    16   10   21 1   
    17   10   41 1   
    18   11   12 1   
    19   11   15 1   
    20   12   13 1   
    21   12   42 1   
    22   12   43 1   
    23   13   14 1   
    24   13   44 1   
    25   13   45 1   
    26   14   15 1   
    27   14   46 1   
    28   14   47 1   
    29   15   16 1   
    30   15   48 1   
    31   16   17 1   
    32   16   21 1   
    33   16   49 1   
    34   17   18 1   
    35   17   31 1   
    36   17   50 1   
    37   18   19 1   
    38   18   22 1   
    39   19   20 1   
    40   19   21 1   
    41   21   51 1   
    42   22   23 1   
    43   22   52 1   
    44   22   53 1   
    45   23   24 1   
    46   23   30 1   
    47   24   25 1   
    48   24   54 1   
    49   25   55 1   
    50   26   27 1   
    51   26   29 1   
    52   27   28 1   
    53   28   56 1   
    54   28   57 1   
    55   28   58 1   
    56   29   59 1   
    57   30   60 1   
    58   31   32 1   
    59   31   33 1   
    60   31   61 1   
    61   32   62 1   
    62   32   63 1   
    63   32   64 1   
    64   33   65 1   
    65   33   66 1   
    66   33   67 1   
@<TRIPOS>SUBSTRUCTURE
     1 348         1 TEMP              0 ****  ****    0 ROOT
