@<TRIPOS>MOLECULE
348
   68    72     1     0     0
SMALL
bcc


@<TRIPOS>ATOM
      1 N1          2.1630   -1.6440    0.8280 n4        1 348     -0.895600
      2 C3          2.1250   -0.1270    0.5610 ce        1 348      0.641800
      3 N2          1.7080    0.7500    1.3680 n2        1 348     -0.676100
      4 C4          2.6450    0.1020   -0.8040 ca        1 348     -0.223900
      5 C9          4.0080   -0.0950   -1.0630 ca        1 348     -0.087000
      6 C8          4.4690   -0.0180   -2.3710 ca        1 348     -0.099500
      7 C7          3.5750    0.2340   -3.4260 ca        1 348     -0.000300
      8 C6          2.2350    0.5200   -3.1430 ca        1 348     -0.099500
      9 C5          1.7660    0.4560   -1.8310 ca        1 348     -0.087000
     10 C10         4.1100    0.1470   -4.8320 c3        1 348      0.218800
     11 N11         3.3280    0.9260   -5.8050 n3        1 348     -0.708600
     12 C12         3.9030    2.2220   -6.1670 c3        1 348      0.149800
     13 C13         4.2950    2.2190   -7.6530 c3        1 348     -0.099400
     14 C14         3.7940    0.9000   -8.2250 c3        1 348     -0.093400
     15 C15         3.1750    0.1250   -7.0450 c3        1 348      0.160500
     16 C16         3.8040   -1.2630   -6.8300 c3        1 348     -0.089700
     17 C17         2.8030   -2.4330   -7.0650 c3        1 348      0.101700
     18 N19         2.4620   -2.9400   -5.7330 n         1 348     -0.445800
     19 C20         3.1770   -2.2970   -4.7250 c         1 348      0.707500
     20 O21         3.0490   -2.5530   -3.5130 o         1 348     -0.672500
     21 C22         4.1820   -1.3190   -5.3320 c3        1 348     -0.150700
     22 C23         1.1980   -3.5830   -5.4740 c3        1 348      0.142300
     23 C24        -0.0240   -2.8140   -5.8890 ca        1 348     -0.164300
     24 C32        -0.8770   -3.3410   -6.8690 ca        1 348     -0.086000
     25 C31        -2.0360   -2.6700   -7.2340 ca        1 348     -0.182000
     26 C30        -2.3470   -1.4440   -6.6120 ca        1 348      0.140100
     27 O29        -3.5170   -0.8580   -7.0450 os        1 348     -0.317900
     28 C28        -3.8530    0.3950   -6.4600 c3        1 348      0.111700
     29 C26        -1.5000   -0.9060   -5.6350 ca        1 348     -0.182000
     30 C25        -0.3440   -1.6000   -5.2810 ca        1 348     -0.086000
     31 C18         3.4490   -3.4720   -8.0090 c3        1 348     -0.068700
     32 C41         2.7110   -4.7920   -8.0410 c3        1 348     -0.095100
     33 C42         3.5020   -2.8940   -9.4120 c3        1 348     -0.095100
     34 H1N1        3.1180   -1.9750    0.6500 hn        1 348      0.457467
     35 H1N2        1.8850   -1.8980    1.7750 hn        1 348      0.457467
     36 H2N         1.3450    0.5520    2.2740 hn        1 348      0.458400
     37 H9          4.7140   -0.2990   -0.2430 ha        1 348      0.142000
     38 H8          5.5370   -0.1840   -2.5830 ha        1 348      0.166000
     39 H6          1.5340    0.7810   -3.9540 ha        1 348      0.166000
     40 H5          0.7090    0.6740   -1.6130 ha        1 348      0.142000
     41 H10         5.1830    0.5230   -4.7930 h1        1 348      0.057700
     42 H121        4.7860    2.4940   -5.5270 h1        1 348      0.054700
     43 H122        3.0990    2.9870   -5.9810 h1        1 348      0.054700
     44 H131        5.4030    2.3080   -7.7660 hc        1 348      0.058200
     45 H132        3.8300    3.0890   -8.1780 hc        1 348      0.058200
     46 H141        3.0180    1.0740   -9.0100 hc        1 348      0.057700
     47 H142        4.6280    0.3260   -8.6980 hc        1 348      0.057700
     48 H15         2.0640    0.0260   -7.2110 h1        1 348      0.081700
     49 H16         4.7120   -1.3920   -7.4690 hc        1 348      0.085700
     50 H17         1.8590   -2.0610   -7.5610 h1        1 348      0.073700
     51 H22         5.2110   -1.7250   -5.1670 hc        1 348      0.095700
     52 H231        1.2040   -4.5820   -6.0010 h1        1 348      0.070200
     53 H232        1.1410   -3.7810   -4.3620 h1        1 348      0.070200
     54 H32        -0.6290   -4.2980   -7.3560 ha        1 348      0.132500
     55 H31        -2.7150   -3.0750   -7.9980 ha        1 348      0.148500
     56 H281       -4.8120    0.6680   -6.9690 h1        1 348      0.048033
     57 H282       -4.0080    0.2870   -5.3590 h1        1 348      0.048033
     58 H283       -3.0630    1.1550   -6.6720 h1        1 348      0.048033
     59 H26        -1.7350    0.0510   -5.1500 ha        1 348      0.148500
     60 H25         0.3270   -1.1800   -4.5150 ha        1 348      0.132500
     61 H18         4.5010   -3.6680   -7.6550 hc        1 348      0.053700
     62 H411        3.0950   -5.4200   -8.8820 hc        1 348      0.041533
     63 H412        2.8650   -5.3590   -7.0910 hc        1 348      0.041533
     64 H413        1.6170   -4.6310   -8.1970 hc        1 348      0.041533
     65 H421        3.9820   -1.8860   -9.4180 hc        1 348      0.041533
     66 H422        4.0920   -3.5700  -10.0770 hc        1 348      0.041533
     67 H423        2.4720   -2.7950   -9.8330 hc        1 348      0.041533
     68 H13         1.5410   -2.1030    0.1540 hn        1 348      0.457467
@<TRIPOS>BOND
     1    1    2 1   
     2    1   34 1   
     3    1   35 1   
     4    1   68 1   
     5    2    3 2   
     6    2    4 1   
     7    3   36 1   
     8    4    5 ar  
     9    4    9 ar  
    10    5    6 ar  
    11    5   37 1   
    12    6    7 ar  
    13    6   38 1   
    14    7    8 ar  
    15    7   10 1   
    16    8    9 ar  
    17    8   39 1   
    18    9   40 1   
    19   10   11 1   
    20   10   21 1   
    21   10   41 1   
    22   11   12 1   
    23   11   15 1   
    24   12   13 1   
    25   12   42 1   
    26   12   43 1   
    27   13   14 1   
    28   13   44 1   
    29   13   45 1   
    30   14   15 1   
    31   14   46 1   
    32   14   47 1   
    33   15   16 1   
    34   15   48 1   
    35   16   17 1   
    36   16   21 1   
    37   16   49 1   
    38   17   18 1   
    39   17   31 1   
    40   17   50 1   
    41   18   19 1   
    42   18   22 1   
    43   19   20 2   
    44   19   21 1   
    45   21   51 1   
    46   22   23 1   
    47   22   52 1   
    48   22   53 1   
    49   23   24 ar  
    50   23   30 ar  
    51   24   25 ar  
    52   24   54 1   
    53   25   26 ar  
    54   25   55 1   
    55   26   27 1   
    56   26   29 ar  
    57   27   28 1   
    58   28   56 1   
    59   28   57 1   
    60   28   58 1   
    61   29   30 ar  
    62   29   59 1   
    63   30   60 1   
    64   31   32 1   
    65   31   33 1   
    66   31   61 1   
    67   32   62 1   
    68   32   63 1   
    69   32   64 1   
    70   33   65 1   
    71   33   66 1   
    72   33   67 1   
@<TRIPOS>SUBSTRUCTURE
     1 348         1 TEMP              0 ****  ****    0 ROOT
