@<TRIPOS>MOLECULE
348
   68    72     1     0     0
SMALL
bcc


@<TRIPOS>ATOM
      1 N1          1.6830   -1.5170    0.7050 n4        1 348     -0.896600
      2 C3          2.3180   -0.1130    0.6600 ce        1 348      0.641800
      3 N2          2.4210    0.6770    1.6390 n2        1 348     -0.674100
      4 C4          2.7880    0.1190   -0.7220 ca        1 348     -0.224900
      5 C9          4.1520    0.0110   -1.0140 ca        1 348     -0.087000
      6 C8          4.5670    0.0790   -2.3410 ca        1 348     -0.099500
      7 C7          3.6310    0.2450   -3.3730 ca        1 348      0.001700
      8 C6          2.2810    0.4530   -3.0550 ca        1 348     -0.099500
      9 C5          1.8560    0.3850   -1.7320 ca        1 348     -0.087000
     10 C10         4.1200    0.1500   -4.7940 c3        1 348      0.216800
     11 N11         3.3080    0.9240   -5.7470 n3        1 348     -0.706600
     12 C12         3.8570    2.2330   -6.1040 c3        1 348      0.148800
     13 C13         4.2480    2.2430   -7.5910 c3        1 348     -0.099400
     14 C14         3.7620    0.9210   -8.1700 c3        1 348     -0.093400
     15 C15         3.1570    0.1310   -6.9930 c3        1 348      0.159500
     16 C16         3.8010   -1.2530   -6.7900 c3        1 348     -0.090700
     17 C17         2.8130   -2.4300   -7.0370 c3        1 348      0.102700
     18 N19         2.4480   -2.9280   -5.7090 n         1 348     -0.447800
     19 C20         3.1470   -2.2800   -4.6920 c         1 348      0.707500
     20 O21         2.9890   -2.5210   -3.4810 o         1 348     -0.672500
     21 C22         4.1720   -1.3170   -5.2910 c3        1 348     -0.148700
     22 C23         1.1860   -3.5790   -5.4680 c3        1 348      0.143300
     23 C24        -0.0340   -2.8370   -5.9340 ca        1 348     -0.164300
     24 C32        -0.8790   -3.4210   -6.8880 ca        1 348     -0.086500
     25 C31        -2.0370   -2.7760   -7.2990 ca        1 348     -0.181500
     26 C30        -2.3550   -1.5170   -6.7520 ca        1 348      0.140100
     27 O29        -3.5230   -0.9600   -7.2250 os        1 348     -0.317900
     28 C28        -3.8600    0.3300   -6.7260 c3        1 348      0.111700
     29 C26        -1.5170   -0.9210   -5.8020 ca        1 348     -0.181500
     30 C25        -0.3620   -1.5900   -5.4000 ca        1 348     -0.086500
     31 C18         3.4830   -3.4730   -7.9610 c3        1 348     -0.068700
     32 C41         2.7550   -4.7980   -7.9920 c3        1 348     -0.095100
     33 C42         3.5540   -2.9070   -9.3680 c3        1 348     -0.095100
     34 H1N1        1.2800   -1.7550    1.6110 hn        1 348      0.457133
     35 H1N2        0.9540   -1.5590   -0.0160 hn        1 348      0.457133
     36 H2N         2.1050    0.4740    2.5610 hn        1 348      0.458400
     37 H9          4.8900   -0.1330   -0.2110 ha        1 348      0.142500
     38 H8          5.6380   -0.0240   -2.5780 ha        1 348      0.165000
     39 H6          1.5460    0.6520   -3.8530 ha        1 348      0.165000
     40 H5          0.7950    0.5430   -1.4890 ha        1 348      0.142500
     41 H10         5.1940    0.5220   -4.7940 h1        1 348      0.056700
     42 H121        4.7340    2.5190   -5.4640 h1        1 348      0.055200
     43 H122        3.0380    2.9810   -5.9170 h1        1 348      0.055200
     44 H131        3.7720    3.1100   -8.1110 hc        1 348      0.058200
     45 H132        5.3550    2.3460   -7.7040 hc        1 348      0.058200
     46 H141        2.9820    1.0890   -8.9520 hc        1 348      0.058200
     47 H142        4.6020    0.3600   -8.6490 hc        1 348      0.058200
     48 H15         2.0470    0.0210   -7.1540 h1        1 348      0.081700
     49 H16         4.7130   -1.3670   -7.4280 hc        1 348      0.086700
     50 H17         1.8770   -2.0660   -7.5540 h1        1 348      0.074700
     51 H22         5.1940   -1.7400   -5.1200 hc        1 348      0.096700
     52 H231        1.1000   -3.7510   -4.3540 h1        1 348      0.069200
     53 H232        1.2170   -4.5900   -5.9690 h1        1 348      0.069200
     54 H32        -0.6250   -4.4040   -7.3180 ha        1 348      0.132500
     55 H31        -2.7090   -3.2260   -8.0440 ha        1 348      0.149000
     56 H281       -3.0660    1.0720   -6.9810 h1        1 348      0.048700
     57 H282       -4.8150    0.5710   -7.2590 h1        1 348      0.048700
     58 H283       -4.0240    0.2930   -5.6210 h1        1 348      0.048700
     59 H26        -1.7560    0.0630   -5.3760 ha        1 348      0.149000
     60 H25         0.3020   -1.1240   -4.6550 ha        1 348      0.132500
     61 H18         4.5300   -3.6560   -7.5880 hc        1 348      0.053700
     62 H411        2.9010   -5.3570   -7.0360 hc        1 348      0.041533
     63 H412        1.6620   -4.6470   -8.1630 hc        1 348      0.041533
     64 H413        3.1550   -5.4300   -8.8230 hc        1 348      0.041533
     65 H421        2.5310   -2.8190   -9.8060 hc        1 348      0.041533
     66 H422        4.0290   -1.8970   -9.3760 hc        1 348      0.041533
     67 H423        4.1580   -3.5860  -10.0180 hc        1 348      0.041533
     68 H13         2.4060   -2.2030    0.4620 hn        1 348      0.457133
@<TRIPOS>BOND
     1    1    2 1   
     2    1   34 1   
     3    1   35 1   
     4    1   68 1   
     5    2    3 2   
     6    2    4 1   
     7    3   36 1   
     8    4    5 ar  
     9    4    9 ar  
    10    5    6 ar  
    11    5   37 1   
    12    6    7 ar  
    13    6   38 1   
    14    7    8 ar  
    15    7   10 1   
    16    8    9 ar  
    17    8   39 1   
    18    9   40 1   
    19   10   11 1   
    20   10   21 1   
    21   10   41 1   
    22   11   12 1   
    23   11   15 1   
    24   12   13 1   
    25   12   42 1   
    26   12   43 1   
    27   13   14 1   
    28   13   44 1   
    29   13   45 1   
    30   14   15 1   
    31   14   46 1   
    32   14   47 1   
    33   15   16 1   
    34   15   48 1   
    35   16   17 1   
    36   16   21 1   
    37   16   49 1   
    38   17   18 1   
    39   17   31 1   
    40   17   50 1   
    41   18   19 1   
    42   18   22 1   
    43   19   20 2   
    44   19   21 1   
    45   21   51 1   
    46   22   23 1   
    47   22   52 1   
    48   22   53 1   
    49   23   24 ar  
    50   23   30 ar  
    51   24   25 ar  
    52   24   54 1   
    53   25   26 ar  
    54   25   55 1   
    55   26   27 1   
    56   26   29 ar  
    57   27   28 1   
    58   28   56 1   
    59   28   57 1   
    60   28   58 1   
    61   29   30 ar  
    62   29   59 1   
    63   30   60 1   
    64   31   32 1   
    65   31   33 1   
    66   31   61 1   
    67   32   62 1   
    68   32   63 1   
    69   32   64 1   
    70   33   65 1   
    71   33   66 1   
    72   33   67 1   
@<TRIPOS>SUBSTRUCTURE
     1 348         1 TEMP              0 ****  ****    0 ROOT
