@<TRIPOS>MOLECULE
349
   60    64     1     0     0
SMALL
bcc


@<TRIPOS>ATOM
      1 O32         1.3330   -0.4730    1.3210 o         1 349     -0.673800
      2 S30         2.2160   -0.5580    0.2370 sy        1 349      1.527200
      3 O31         3.5450   -0.9910    0.5710 o         1 349     -0.673800
      4 N33         1.6250   -1.3820   -0.9780 n3        1 349     -0.842500
      5 C34         2.3890   -1.9410   -2.0770 c3        1 349      0.226800
      6 C35         1.4280   -2.7270   -2.9830 c3        1 349     -0.082400
      7 C36         0.0400   -2.5770   -2.3700 c3        1 349     -0.082400
      8 C37         0.2060   -1.6890   -1.1290 c3        1 349      0.226800
      9 C29         2.4480    1.0320   -0.3810 ca        1 349     -0.333500
     10 C28         1.3000    1.8290   -0.4180 ca        1 349     -0.025000
     11 C27         1.3310    3.1490   -0.8780 ca        1 349     -0.086000
     12 C26         2.5340    3.6980   -1.3100 ca        1 349     -0.062000
     13 C25         3.6990    2.9250   -1.2700 ca        1 349     -0.113000
     14 C24         3.6590    1.6040   -0.8180 ca        1 349     -0.088300
     15 C23         4.9470    0.8410   -0.8560 c3        1 349      0.182100
     16 N22         5.5900    0.8250    0.5190 n4        1 349     -0.780700
     17 C21         6.9870    0.3590    0.4880 ca        1 349      0.607200
     18 N20         7.2010   -0.9900    0.5590 nb        1 349     -0.647000
     19 C8          8.5090   -1.3880    0.5610 ca        1 349      0.777900
     20 N7          9.6180   -0.5760    0.4810 nb        1 349     -0.627000
     21 C6          9.3750    0.7410    0.4030 ca        1 349      0.537200
     22 C5          8.0620    1.2770    0.4060 ca        1 349     -0.362900
     23 C2          7.8510    2.7950    0.3330 c3        1 349      0.702200
     24 F4          9.0050    3.5190    0.3090 f         1 349     -0.196967
     25 F3          7.1360    3.1690   -0.7770 f         1 349     -0.196967
     26 F1          7.1170    3.2690    1.3920 f         1 349     -0.196967
     27 N9          8.7620   -2.8610    0.6930 n4        1 349     -0.606100
     28 C10         8.9920   -3.2280    2.0990 ca        1 349     -0.086400
     29 C11         7.8060   -3.4720    2.9130 ca        1 349     -0.157000
     30 C12         7.9130   -3.8560    4.2020 ca        1 349     -0.020000
     31 C13         9.2230   -4.0300    4.8080 ca        1 349      0.025000
     32 N14         9.5310   -4.3940    6.0280 nc        1 349     -0.226400
     33 C18        10.4390   -3.7670    3.9380 ca        1 349     -0.185000
     34 C19        10.2660   -3.3580    2.5830 ca        1 349      0.049000
     35 C17        11.5370   -4.0020    4.7050 cc        1 349     -0.063200
     36 C15        11.0020   -4.4150    6.0920 c         1 349      0.629700
     37 O16        11.6860   -4.7030    7.0590 o         1 349     -0.347100
     38 H34         2.8830   -1.1110   -2.6560 h1        1 349      0.050450
     39 H34A        3.1930   -2.6150   -1.6690 h1        1 349      0.050450
     40 H35         1.4550   -2.3160   -4.0220 hc        1 349      0.073450
     41 H35A        1.7320   -3.8010   -3.0290 hc        1 349      0.073450
     42 H36        -0.6710   -2.1030   -3.0920 hc        1 349      0.073450
     43 H36A       -0.3800   -3.5720   -2.0790 hc        1 349      0.073450
     44 H37        -0.1640   -2.2140   -0.2040 h1        1 349      0.050450
     45 H37A       -0.3730   -0.7300   -1.2490 h1        1 349      0.050450
     46 H28         0.3380    1.4130   -0.0570 ha        1 349      0.176000
     47 H27         0.4040    3.7490   -0.8960 ha        1 349      0.181000
     48 H26         2.5750    4.7370   -1.6800 ha        1 349      0.176000
     49 H25         4.6500    3.3700   -1.6110 ha        1 349      0.150000
     50 H23         5.6760    1.3330   -1.5640 hx        1 349      0.117200
     51 H23A        4.7880   -0.2340   -1.1610 hx        1 349      0.117200
     52 HN22        5.0120    0.1810    1.1190 hn        1 349      0.504800
     53 H6         10.2710    1.4060    0.3370 h4        1 349      0.119100
     54 HN9         9.5890   -3.1080    0.1240 hn        1 349      0.494800
     55 H11         6.8110   -3.3480    2.4540 ha        1 349      0.163000
     56 H12         7.0230   -4.0560    4.8280 ha        1 349      0.199000
     57 H19        11.1720   -3.1700    1.9770 ha        1 349      0.171000
     58 H17        12.6050   -3.9430    4.4880 ha        1 349      0.205000
     59 H222        5.5590    1.7740    0.9240 hn        1 349      0.504800
     60 H92         7.9380   -3.3840    0.3470 hn        1 349      0.494800
@<TRIPOS>BOND
     1    1    2 2   
     2    2    3 2   
     3    2    4 1   
     4    2    9 1   
     5    4    5 1   
     6    4    8 1   
     7    5    6 1   
     8    5   38 1   
     9    5   39 1   
    10    6    7 1   
    11    6   40 1   
    12    6   41 1   
    13    7    8 1   
    14    7   42 1   
    15    7   43 1   
    16    8   44 1   
    17    8   45 1   
    18    9   10 ar  
    19    9   14 ar  
    20   10   11 ar  
    21   10   46 1   
    22   11   12 ar  
    23   11   47 1   
    24   12   13 ar  
    25   12   48 1   
    26   13   14 ar  
    27   13   49 1   
    28   14   15 1   
    29   15   16 1   
    30   15   50 1   
    31   15   51 1   
    32   16   17 1   
    33   16   52 1   
    34   16   59 1   
    35   17   18 ar  
    36   17   22 ar  
    37   18   19 ar  
    38   19   20 ar  
    39   19   27 1   
    40   20   21 ar  
    41   21   22 ar  
    42   21   53 1   
    43   22   23 1   
    44   23   24 1   
    45   23   25 1   
    46   23   26 1   
    47   27   28 1   
    48   27   54 1   
    49   27   60 1   
    50   28   29 ar  
    51   28   34 ar  
    52   29   30 ar  
    53   29   55 1   
    54   30   31 ar  
    55   30   56 1   
    56   31   32 2   
    57   31   33 ar  
    58   32   36 1   
    59   33   34 ar  
    60   33   35 2   
    61   34   57 1   
    62   35   36 1   
    63   35   58 1   
    64   36   37 2   
@<TRIPOS>SUBSTRUCTURE
     1 349         1 TEMP              0 ****  ****    0 ROOT
