@<TRIPOS>MOLECULE
349
   58    62     1     0     0
SMALL
bcc


@<TRIPOS>ATOM
      1 O32         0.4180    1.6400   -0.4570 o         1 349     -0.656800
      2 S30         1.5410    0.7840   -0.4890 sy        1 349      1.517200
      3 O31         2.2340    0.6110    0.7310 o         1 349     -0.656800
      4 N33         1.1130   -0.6490   -1.0990 n3        1 349     -0.835500
      5 C34         1.7150   -1.9200   -0.7520 c3        1 349      0.226300
      6 C35         0.7380   -3.0370   -1.1590 c3        1 349     -0.084400
      7 C36        -0.3710   -2.3580   -1.9560 c3        1 349     -0.084400
      8 C37        -0.0520   -0.8530   -1.9370 c3        1 349      0.226300
      9 C29         2.6390    1.4050   -1.6330 ca        1 349     -0.353500
     10 C28         2.1060    2.2540   -2.6160 ca        1 349     -0.034000
     11 C27         2.9140    2.8630   -3.5710 ca        1 349     -0.145000
     12 C26         4.2900    2.6330   -3.5560 ca        1 349     -0.070000
     13 C25         4.8390    1.7930   -2.5900 ca        1 349     -0.138000
     14 C24         4.0230    1.1740   -1.6370 ca        1 349      0.017700
     15 C23         4.6960    0.2490   -0.6510 c3        1 349      0.233100
     16 N22         5.0960    0.9420    0.5540 nu        1 349     -0.819900
     17 C21         5.9830    0.3620    1.4500 ca        1 349      0.768200
     18 N20         6.6460   -0.7940    1.1170 nb        1 349     -0.824000
     19 C8          7.5790   -1.2700    2.0170 ca        1 349      0.925900
     20 N7          7.9120   -0.6670    3.2280 nb        1 349     -0.769000
     21 C6          7.2440    0.4530    3.5220 ca        1 349      0.535200
     22 C5          6.2680    1.0280    2.6920 ca        1 349     -0.516900
     23 C2          5.5740    2.3060    3.0960 c3        1 349      0.712200
     24 F4          5.9570    2.8020    4.3200 f         1 349     -0.235633
     25 F3          5.7710    3.3610    2.2360 f         1 349     -0.235633
     26 F1          4.2060    2.2110    3.1870 f         1 349     -0.235633
     27 N9          8.1880   -2.4910    1.6650 nu        1 349     -0.718300
     28 C10         9.3230   -2.9970    2.3330 ca        1 349      0.163600
     29 C11         9.2410   -3.2560    3.7750 ca        1 349     -0.060000
     30 C12        10.2580   -3.8080    4.4690 ca        1 349     -0.124000
     31 C13        11.4890   -4.1770    3.7990 ca        1 349      0.057000
     32 N14        12.5830   -4.7170    4.2850 nc        1 349     -0.306400
     33 C18        11.5640   -3.9250    2.3000 ca        1 349     -0.073000
     34 C19        10.4540   -3.3270    1.6310 ca        1 349     -0.158000
     35 C17        12.7860   -4.3460    1.8930 cc        1 349     -0.209200
     36 C15        13.4960   -4.8740    3.1400 c         1 349      0.653700
     37 O16        14.6260   -5.3450    3.1850 o         1 349     -0.447100
     38 H34         1.9320   -1.9520    0.3520 h1        1 349      0.050450
     39 H34A        2.6870   -2.0460   -1.3080 h1        1 349      0.050450
     40 H35         0.3270   -3.5410   -0.2510 hc        1 349      0.054950
     41 H35A        1.2660   -3.8070   -1.7720 hc        1 349      0.054950
     42 H36        -1.3700   -2.5490   -1.4950 hc        1 349      0.054950
     43 H36A       -0.3990   -2.7320   -3.0080 hc        1 349      0.054950
     44 H37        -0.9210   -0.2630   -1.5310 h1        1 349      0.050450
     45 H37A        0.1630   -0.4900   -2.9810 h1        1 349      0.050450
     46 H28         1.0200    2.4600   -2.6150 ha        1 349      0.160000
     47 H27         2.4700    3.5270   -4.3270 ha        1 349      0.145000
     48 H26         4.9400    3.1160   -4.3010 ha        1 349      0.141000
     49 H25         5.9270    1.6190   -2.5710 ha        1 349      0.146000
     50 H23         5.6100   -0.1910   -1.1470 h1        1 349      0.064700
     51 H23A        4.0010   -0.6080   -0.4010 h1        1 349      0.064700
     52 HN22        4.3670    1.4900    0.9790 hn        1 349      0.461800
     53 H6          7.5110    0.9300    4.4880 h4        1 349      0.047100
     54 HN9         8.1220   -2.7370    0.6970 hn        1 349      0.448800
     55 H11         8.3020   -2.9960    4.2920 ha        1 349      0.165000
     56 H12        10.1830   -3.9980    5.5520 ha        1 349      0.165000
     57 H19        10.5490   -3.1550    0.5470 ha        1 349      0.145000
     58 H17        13.2550   -4.3490    0.9130 ha        1 349      0.178000
@<TRIPOS>BOND
     1    1    2 2   
     2    2    3 2   
     3    2    4 1   
     4    2    9 1   
     5    4    5 1   
     6    4    8 1   
     7    5    6 1   
     8    5   38 1   
     9    5   39 1   
    10    6    7 1   
    11    6   40 1   
    12    6   41 1   
    13    7    8 1   
    14    7   42 1   
    15    7   43 1   
    16    8   44 1   
    17    8   45 1   
    18    9   10 ar  
    19    9   14 ar  
    20   10   11 ar  
    21   10   46 1   
    22   11   12 ar  
    23   11   47 1   
    24   12   13 ar  
    25   12   48 1   
    26   13   14 ar  
    27   13   49 1   
    28   14   15 1   
    29   15   16 1   
    30   15   50 1   
    31   15   51 1   
    32   16   17 1   
    33   16   52 1   
    34   17   18 ar  
    35   17   22 ar  
    36   18   19 ar  
    37   19   20 ar  
    38   19   27 1   
    39   20   21 ar  
    40   21   22 ar  
    41   21   53 1   
    42   22   23 1   
    43   23   24 1   
    44   23   25 1   
    45   23   26 1   
    46   27   28 1   
    47   27   54 1   
    48   28   29 ar  
    49   28   34 ar  
    50   29   30 ar  
    51   29   55 1   
    52   30   31 ar  
    53   30   56 1   
    54   31   32 2   
    55   31   33 ar  
    56   32   36 1   
    57   33   34 ar  
    58   33   35 2   
    59   34   57 1   
    60   35   36 1   
    61   35   58 1   
    62   36   37 2   
@<TRIPOS>SUBSTRUCTURE
     1 349         1 TEMP              0 ****  ****    0 ROOT
