@<TRIPOS>MOLECULE
349
   58    53     1     0     0
SMALL
bcc


@<TRIPOS>ATOM
      1 O32        -0.3490   -4.2040   -1.4740 o         1 349     -0.934000
      2 S30         0.8450   -3.3800   -1.7550 ss        1 349      2.855000
      3 O31         1.2480   -3.0400   -0.4690 o         1 349     -0.934000
      4 N33         2.0220   -4.2670   -2.5460 n2        1 349     -0.855000
      5 C34         1.8530   -5.7050   -3.1620 c3        1 349     -0.008500
      6 C35         3.2860   -6.1130   -3.6920 c3        1 349     -0.163000
      7 C36         3.9970   -5.0030   -3.6490 c3        1 349     -0.163000
      8 C37         3.3270   -4.0760   -2.4720 c3        1 349     -0.008500
      9 C29         0.4210   -1.9090   -2.7120 c1        1 349     -0.808000
     10 C28         0.6680   -1.8760   -4.0820 c1        1 349     -0.029000
     11 C27         0.2700   -0.7650   -4.8430 c1        1 349     -0.108500
     12 C26        -0.3750    0.3130   -4.2250 c1        1 349     -0.108500
     13 C25        -0.6250    0.2810   -2.8480 c1        1 349     -0.158000
     14 C24        -0.2260   -0.8300   -2.0890 c2        1 349      0.023000
     15 C23        -0.5890   -0.9090   -0.5810 c3        1 349     -0.018000
     16 N22        -1.9740   -0.5460   -0.4040 n3        1 349     -0.284000
     17 C21        -2.3410    0.4120    0.5860 c2        1 349      0.252000
     18 N20        -1.4480    0.7720    1.5550 n2        1 349     -0.285000
     19 C8         -1.8270    1.6560    2.5540 c1        1 349      0.216000
     20 N7         -3.0970    2.1700    2.5690 n1        1 349     -0.242000
     21 C6         -3.9860    1.8160    1.6100 c1        1 349      0.076000
     22 C5         -3.6080    0.9250    0.6020 c1        1 349     -0.404000
     23 C2         -4.6370    0.5110   -0.5020 c3        1 349      0.493000
     24 F4         -4.0190    0.4670   -1.7060 f         1 349     -0.169000
     25 F3         -5.1290   -0.6700   -0.2200 f         1 349     -0.169000
     26 F1         -5.6490    1.4260   -0.5440 f         1 349     -0.169000
     27 N9         -0.8950    1.9630    3.6600 n3        1 349     -0.239000
     28 C10        -0.6660    3.2880    4.0300 c2        1 349      0.079000
     29 C11        -1.7570    4.0730    4.7860 c2        1 349     -0.061000
     30 C12        -1.3630    5.3610    5.5040 c1        1 349     -0.123000
     31 C13         0.0850    5.8270    5.4410 c1        1 349      0.057000
     32 N14         0.5990    7.0230    6.0780 n1        1 349     -0.166000
     33 C18         1.0280    5.1600    4.7750 c2        1 349     -0.076000
     34 C19         0.7460    3.8300    4.0380 c2        1 349     -0.150000
     35 C17         2.3140    5.7950    4.8680 c1        1 349     -0.186000
     36 C15         2.1470    7.1240    5.7600 c1        1 349      0.255000
     37 O16         2.7810    8.1540    5.6270 o         1 349     -0.207000
     38 H34         1.5610   -6.3300   -2.4840 h1        1 349      0.087500
     39 H34A        1.1960   -5.6820   -3.9180 h1        1 349      0.087500
     40 H35         3.2270   -6.4360   -4.5920 hc        1 349      0.093750
     41 H35A        3.6800   -6.7870   -3.1160 hc        1 349      0.093750
     42 H36         4.9400   -5.2130   -3.4190 hc        1 349      0.093750
     43 H36A        3.9550   -4.5420   -4.5080 hc        1 349      0.093750
     44 H37         3.6650   -4.3590   -1.5790 h1        1 349      0.087500
     45 H37A        3.5420   -3.1100   -2.6320 h1        1 349      0.087500
     46 H28         1.1280   -2.6470   -4.5250 ha        1 349      0.157000
     47 H27         0.4450   -0.7450   -5.8000 ha        1 349      0.142000
     48 H26        -0.6780    1.1590   -4.8060 ha        1 349      0.142000
     49 H25        -1.0840    1.0490   -2.4060 ha        1 349      0.140000
     50 H23        -0.0530   -0.3260   -0.1050 h1        1 349      0.142500
     51 H23A       -0.4460   -1.8280   -0.2540 h1        1 349      0.142500
     52 HN22       -2.6290   -0.9880   -0.8820 hn        1 349      0.237000
     53 H6         -4.9260    2.1980    1.6250 ha        1 349      0.184000
     54 HN9        -0.4520    1.2770    4.0970 hn        1 349      0.253000
     55 H11        -2.7520    3.8650    4.6160 ha        1 349      0.165000
     56 H12        -1.9940    5.8540    5.9640 ha        1 349      0.165000
     57 H19         1.4950    3.2710    3.7180 ha        1 349      0.147000
     58 H17         3.1010    5.2690    4.9400 ha        1 349      0.179000
@<TRIPOS>BOND
     1    1    2 1   
     2    2    3 1   
     3    4    5 1   
     4    4    8 1   
     5    5    6 1   
     6    5   38 1   
     7    5   39 1   
     8    6    7 1   
     9    6   40 1   
    10    6   41 1   
    11    7    8 1   
    12    7   42 1   
    13    7   43 1   
    14    8   44 1   
    15    8   45 1   
    16    9   10 1   
    17    9   14 1   
    18   10   46 1   
    19   11   12 1   
    20   11   47 1   
    21   12   48 1   
    22   13   14 1   
    23   13   49 1   
    24   14   15 1   
    25   15   16 1   
    26   15   50 1   
    27   15   51 1   
    28   16   17 1   
    29   16   52 1   
    30   17   18 1   
    31   17   22 1   
    32   18   19 1   
    33   19   27 1   
    34   20   21 1   
    35   21   53 1   
    36   22   23 1   
    37   23   24 1   
    38   23   25 1   
    39   23   26 1   
    40   27   28 1   
    41   27   54 1   
    42   28   29 1   
    43   28   34 1   
    44   29   30 1   
    45   29   55 1   
    46   30   56 1   
    47   31   32 1   
    48   31   33 1   
    49   33   34 1   
    50   33   35 1   
    51   34   57 1   
    52   35   58 1   
    53   36   37 1   
@<TRIPOS>SUBSTRUCTURE
     1 349         1 TEMP              0 ****  ****    0 ROOT
