@<TRIPOS>MOLECULE
349
   58    62     1     0     0
SMALL
bcc


@<TRIPOS>ATOM
      1 O32        -5.7690    0.7660   -1.2240 o         1 349     -0.656800
      2 S30        -4.4860    1.0280   -0.6960 sy        1 349      1.517200
      3 O31        -3.3880    0.5530   -1.4500 o         1 349     -0.656800
      4 N33        -4.3290    2.6100   -0.4140 n3        1 349     -0.835500
      5 C34        -3.0880    3.3540   -0.4810 c3        1 349      0.226300
      6 C35        -3.4330    4.8460   -0.6250 c3        1 349     -0.084400
      7 C36        -4.9410    4.9520   -0.4230 c3        1 349     -0.084400
      8 C37        -5.4500    3.5130   -0.2350 c3        1 349      0.226300
      9 C29        -4.4030    0.3260    0.8520 ca        1 349     -0.353500
     10 C28        -5.6270    0.0860    1.4980 ca        1 349     -0.034000
     11 C27        -5.6870   -0.5320    2.7420 ca        1 349     -0.145000
     12 C26        -4.5080   -0.9310    3.3700 ca        1 349     -0.070000
     13 C25        -3.2820   -0.7020    2.7480 ca        1 349     -0.138000
     14 C24        -3.2240   -0.0710    1.5010 ca        1 349      0.017700
     15 C23        -1.8530    0.1730    0.9160 c3        1 349      0.233100
     16 N22        -1.4240   -0.9190    0.0700 nh        1 349     -0.819900
     17 C21        -0.0990   -1.0410   -0.3210 ca        1 349      0.768200
     18 N20         0.8660   -0.2420    0.2430 nb        1 349     -0.824000
     19 C8          2.1760   -0.4750   -0.1260 ca        1 349      0.925900
     20 N7          2.6000   -1.4610   -1.0130 nb        1 349     -0.769000
     21 C6          1.6360   -2.2170   -1.5470 ca        1 349      0.535200
     22 C5          0.2700   -2.0700   -1.2560 ca        1 349     -0.516900
     23 C2         -0.7520   -2.9800   -1.8930 c3        1 349      0.712200
     24 F4         -0.2300   -3.8990   -2.7720 f         1 349     -0.235633
     25 F3         -1.4720   -3.7440   -1.0040 f         1 349     -0.235633
     26 F1         -1.7200   -2.3320   -2.6230 f         1 349     -0.235633
     27 N9          3.1240    0.4090    0.4270 nh        1 349     -0.718300
     28 C10         4.5140    0.1770    0.3570 ca        1 349      0.163600
     29 C11         5.1460    0.0500   -0.9610 ca        1 349     -0.060000
     30 C12         6.4790   -0.0990   -1.1120 ca        1 349     -0.124000
     31 C13         7.3500   -0.1320    0.0460 ca        1 349      0.057000
     32 N14         8.6530   -0.2690    0.1160 nc        1 349     -0.306400
     33 C18         6.6930    0.0190    1.4110 ca        1 349     -0.073000
     34 C19         5.2750    0.1620    1.4980 ca        1 349     -0.158000
     35 C17         7.6860   -0.0360    2.3310 cc        1 349     -0.209200
     36 C15         8.9860   -0.2220    1.5500 c         1 349      0.653700
     37 O16        10.1110   -0.3140    2.0270 o         1 349     -0.447100
     38 H34        -2.4950    3.1920    0.4630 h1        1 349      0.050450
     39 H34A       -2.4720    2.9930   -1.3520 h1        1 349      0.050450
     40 H35        -2.8780    5.4460    0.1370 hc        1 349      0.054950
     41 H35A       -3.1380    5.2160   -1.6370 hc        1 349      0.054950
     42 H36        -5.1850    5.5680    0.4760 hc        1 349      0.054950
     43 H36A       -5.4320    5.4250   -1.3080 hc        1 349      0.054950
     44 H37        -6.2570    3.2700   -0.9810 h1        1 349      0.050450
     45 H37A       -5.8770    3.3860    0.7990 h1        1 349      0.050450
     46 H28        -6.5660    0.3770    0.9910 ha        1 349      0.160000
     47 H27        -6.6610   -0.7120    3.2230 ha        1 349      0.145000
     48 H26        -4.5430   -1.4290    4.3510 ha        1 349      0.141000
     49 H25        -2.3510   -1.0260    3.2390 ha        1 349      0.146000
     50 H23        -1.8560    1.1440    0.3370 h1        1 349      0.064700
     51 H23A       -1.1220    0.2900    1.7690 h1        1 349      0.064700
     52 HN22       -2.0960   -1.1910   -0.6280 hn        1 349      0.461800
     53 H6          1.9770   -3.0010   -2.2540 h4        1 349      0.047100
     54 HN9         2.8190    0.9080    1.2390 hn        1 349      0.448800
     55 H11         4.4960    0.0930   -1.8510 ha        1 349      0.165000
     56 H12         6.9410   -0.1920   -2.1080 ha        1 349      0.165000
     57 H19         4.8360    0.2620    2.5030 ha        1 349      0.145000
     58 H17         7.6630    0.0260    3.4160 ha        1 349      0.178000
@<TRIPOS>BOND
     1    1    2 2   
     2    2    3 2   
     3    2    4 1   
     4    2    9 1   
     5    4    5 1   
     6    4    8 1   
     7    5    6 1   
     8    5   38 1   
     9    5   39 1   
    10    6    7 1   
    11    6   40 1   
    12    6   41 1   
    13    7    8 1   
    14    7   42 1   
    15    7   43 1   
    16    8   44 1   
    17    8   45 1   
    18    9   10 ar  
    19    9   14 ar  
    20   10   11 ar  
    21   10   46 1   
    22   11   12 ar  
    23   11   47 1   
    24   12   13 ar  
    25   12   48 1   
    26   13   14 ar  
    27   13   49 1   
    28   14   15 1   
    29   15   16 1   
    30   15   50 1   
    31   15   51 1   
    32   16   17 1   
    33   16   52 1   
    34   17   18 ar  
    35   17   22 ar  
    36   18   19 ar  
    37   19   20 ar  
    38   19   27 1   
    39   20   21 ar  
    40   21   22 ar  
    41   21   53 1   
    42   22   23 1   
    43   23   24 1   
    44   23   25 1   
    45   23   26 1   
    46   27   28 1   
    47   27   54 1   
    48   28   29 ar  
    49   28   34 ar  
    50   29   30 ar  
    51   29   55 1   
    52   30   31 ar  
    53   30   56 1   
    54   31   32 2   
    55   31   33 ar  
    56   32   36 1   
    57   33   34 ar  
    58   33   35 2   
    59   34   57 1   
    60   35   36 1   
    61   35   58 1   
    62   36   37 2   
@<TRIPOS>SUBSTRUCTURE
     1 349         1 TEMP              0 ****  ****    0 ROOT
