@<TRIPOS>MOLECULE
349
   58    62     1     0     0
SMALL
bcc


@<TRIPOS>ATOM
      1 O32         0.4100    1.6190   -0.4450 o         1 349     -0.656800
      2 S30         1.5420    0.7760   -0.4880 sy        1 349      1.517200
      3 O31         2.2280    0.5820    0.7340 o         1 349     -0.656800
      4 N33         1.1330   -0.6470   -1.1330 n3        1 349     -0.835500
      5 C34         1.7460   -1.9190   -0.8120 c3        1 349      0.226300
      6 C35         0.7850   -3.0370   -1.2520 c3        1 349     -0.084400
      7 C36        -0.3260   -2.3510   -2.0400 c3        1 349     -0.084400
      8 C37        -0.0240   -0.8440   -1.9840 c3        1 349      0.226300
      9 C29         2.6410    1.4340   -1.6090 ca        1 349     -0.353500
     10 C28         2.1070    2.3000   -2.5760 ca        1 349     -0.034000
     11 C27         2.9160    2.9390   -3.5100 ca        1 349     -0.145000
     12 C26         4.2930    2.7230   -3.4900 ca        1 349     -0.070000
     13 C25         4.8450    1.8660   -2.5400 ca        1 349     -0.137000
     14 C24         4.0280    1.2180   -1.6070 ca        1 349      0.017700
     15 C23         4.7030    0.2770   -0.6380 c3        1 349      0.233100
     16 N22         5.0880    0.9460    0.5860 nh        1 349     -0.818900
     17 C21         5.9690    0.3500    1.4770 ca        1 349      0.767200
     18 N20         6.6410   -0.7950    1.1270 nb        1 349     -0.823000
     19 C8          7.5670   -1.2860    2.0250 ca        1 349      0.925900
     20 N7          7.8850   -0.7080    3.2520 nb        1 349     -0.769000
     21 C6          7.2090    0.4030    3.5630 ca        1 349      0.535200
     22 C5          6.2390    0.9910    2.7370 ca        1 349     -0.515900
     23 C2          5.5350    2.2570    3.1610 c3        1 349      0.712200
     24 F4          5.9030    2.7280    4.3990 f         1 349     -0.235633
     25 F3          5.7360    3.3310    2.3250 f         1 349     -0.235633
     26 F1          4.1660    2.1550    3.2360 f         1 349     -0.235633
     27 N9          8.1840   -2.4960    1.6530 nh        1 349     -0.718300
     28 C10         9.3140   -3.0130    2.3210 ca        1 349      0.163600
     29 C11         9.2170   -3.3040    3.7560 ca        1 349     -0.060000
     30 C12        10.2280   -3.8670    4.4490 ca        1 349     -0.124000
     31 C13        11.4680   -4.2180    3.7850 ca        1 349      0.057000
     32 N14        12.5590   -4.7640    4.2710 nc        1 349     -0.306400
     33 C18        11.5580   -3.9320    2.2930 ca        1 349     -0.073000
     34 C19        10.4540   -3.3240    1.6240 ca        1 349     -0.158000
     35 C17        12.7860   -4.3410    1.8900 cc        1 349     -0.209200
     36 C15        13.4850   -4.8920    3.1330 c         1 349      0.653700
     37 O16        14.6160   -5.3610    3.1800 o         1 349     -0.447100
     38 H34         1.9560   -1.9750    0.2930 h1        1 349      0.050450
     39 H34A        2.7240   -2.0220   -1.3630 h1        1 349      0.050450
     40 H35         1.3250   -3.7860   -1.8800 hc        1 349      0.054950
     41 H35A        0.3730   -3.5670   -0.3590 hc        1 349      0.054950
     42 H36        -0.3430   -2.7010   -3.1010 hc        1 349      0.054950
     43 H36A       -1.3260   -2.5640   -1.5910 hc        1 349      0.054950
     44 H37        -0.9020   -0.2730   -1.5710 h1        1 349      0.050450
     45 H37A        0.1950   -0.4540   -3.0170 h1        1 349      0.050450
     46 H28         1.0180    2.4950   -2.5790 ha        1 349      0.160000
     47 H27         2.4700    3.6160   -4.2540 ha        1 349      0.145000
     48 H26         4.9440    3.2300   -4.2190 ha        1 349      0.141000
     49 H25         5.9340    1.7030   -2.5160 ha        1 349      0.146000
     50 H23         5.6250   -0.1420   -1.1370 h1        1 349      0.064200
     51 H23A        4.0160   -0.5930   -0.4130 h1        1 349      0.064200
     52 HN22        4.3510    1.4800    1.0150 hn        1 349      0.461800
     53 H6          7.4640    0.8590    4.5420 h4        1 349      0.047100
     54 HN9         8.1300   -2.7220    0.6790 hn        1 349      0.448800
     55 H11         8.2720   -3.0580    4.2690 ha        1 349      0.165000
     56 H12        10.1430   -4.0810    5.5270 ha        1 349      0.165000
     57 H19        10.5590   -3.1280    0.5460 ha        1 349      0.145000
     58 H17        13.2650   -4.3210    0.9150 ha        1 349      0.178000
@<TRIPOS>BOND
     1    1    2 2   
     2    2    3 2   
     3    2    4 1   
     4    2    9 1   
     5    4    5 1   
     6    4    8 1   
     7    5    6 1   
     8    5   38 1   
     9    5   39 1   
    10    6    7 1   
    11    6   40 1   
    12    6   41 1   
    13    7    8 1   
    14    7   42 1   
    15    7   43 1   
    16    8   44 1   
    17    8   45 1   
    18    9   10 ar  
    19    9   14 ar  
    20   10   11 ar  
    21   10   46 1   
    22   11   12 ar  
    23   11   47 1   
    24   12   13 ar  
    25   12   48 1   
    26   13   14 ar  
    27   13   49 1   
    28   14   15 1   
    29   15   16 1   
    30   15   50 1   
    31   15   51 1   
    32   16   17 1   
    33   16   52 1   
    34   17   18 ar  
    35   17   22 ar  
    36   18   19 ar  
    37   19   20 ar  
    38   19   27 1   
    39   20   21 ar  
    40   21   22 ar  
    41   21   53 1   
    42   22   23 1   
    43   23   24 1   
    44   23   25 1   
    45   23   26 1   
    46   27   28 1   
    47   27   54 1   
    48   28   29 ar  
    49   28   34 ar  
    50   29   30 ar  
    51   29   55 1   
    52   30   31 ar  
    53   30   56 1   
    54   31   32 2   
    55   31   33 ar  
    56   32   36 1   
    57   33   34 ar  
    58   33   35 2   
    59   34   57 1   
    60   35   36 1   
    61   35   58 1   
    62   36   37 2   
@<TRIPOS>SUBSTRUCTURE
     1 349         1 TEMP              0 ****  ****    0 ROOT
