@<TRIPOS>MOLECULE
34A
   20    20     1     0     0
SMALL
bcc


@<TRIPOS>ATOM
      1 N1         -0.0370    0.0660    0.0460 nv        1 34A     -0.816200
      2 C1          1.3610   -0.0190    0.0250 ca        1 34A      0.133600
      3 C2          2.0980   -0.1130    1.2270 ca        1 34A     -0.191000
      4 C3          3.4860   -0.1020    1.1970 ca        1 34A     -0.090000
      5 C4          4.1870   -0.0080   -0.0090 ca        1 34A     -0.120300
      6 C5          3.4650    0.0790   -1.2120 ca        1 34A     -0.041300
      7 C6          2.0700    0.0680   -1.1940 ca        1 34A     -0.186000
      8 C7          5.6670    0.0010   -0.0180 c3        1 34A     -0.043800
      9 C8          4.1840    0.1800   -2.5040 c3        1 34A     -0.053800
     10 HN11       -0.4740   -0.2170   -0.8030 hn        1 34A      0.385300
     11 HN12       -0.4560   -0.3430    0.8530 hn        1 34A      0.385300
     12 H2          1.5770   -0.1840    2.1930 ha        1 34A      0.130000
     13 H3          4.0450   -0.1700    2.1440 ha        1 34A      0.128000
     14 H6          1.5210    0.1400   -2.1450 ha        1 34A      0.130000
     15 H71         6.0480    0.9400   -0.4930 hc        1 34A      0.039367
     16 H72         6.0570   -0.8670   -0.6080 hc        1 34A      0.039367
     17 H73         6.0810   -0.0640    1.0180 hc        1 34A      0.039367
     18 H81         3.4750    0.2260   -3.3660 hc        1 34A      0.043700
     19 H82         4.8550   -0.7060   -2.6420 hc        1 34A      0.043700
     20 H83         4.8200    1.1010   -2.5180 hc        1 34A      0.043700
@<TRIPOS>BOND
     1    1    2 1   
     2    1   10 1   
     3    1   11 1   
     4    2    3 ar  
     5    2    7 ar  
     6    3    4 ar  
     7    3   12 1   
     8    4    5 ar  
     9    4   13 1   
    10    5    6 ar  
    11    5    8 1   
    12    6    7 ar  
    13    6    9 1   
    14    7   14 1   
    15    8   15 1   
    16    8   16 1   
    17    8   17 1   
    18    9   18 1   
    19    9   19 1   
    20    9   20 1   
@<TRIPOS>SUBSTRUCTURE
     1 34A         1 TEMP              0 ****  ****    0 ROOT
