@<TRIPOS>MOLECULE
34A
   20    20     1     0     0
SMALL
bcc


@<TRIPOS>ATOM
      1 N1         -0.0400   -0.1400    0.0130 nh        1 34A     -0.816200
      2 C1          1.3560   -0.0210    0.0050 ca        1 34A      0.133600
      3 C2          2.0780    0.0970    1.2150 ca        1 34A     -0.191000
      4 C3          3.4670    0.1190    1.1990 ca        1 34A     -0.090000
      5 C4          4.1820    0.0350    0.0020 ca        1 34A     -0.120300
      6 C5          3.4750   -0.0760   -1.2080 ca        1 34A     -0.041300
      7 C6          2.0800   -0.0990   -1.2050 ca        1 34A     -0.186000
      8 C7          5.6620    0.0620    0.0080 c3        1 34A     -0.043800
      9 C8          4.2100   -0.1680   -2.4920 c3        1 34A     -0.053800
     10 HN11       -0.4740    0.1280   -0.8430 hn        1 34A      0.385300
     11 HN12       -0.4760    0.2640    0.8120 hn        1 34A      0.385300
     12 H2          1.5450    0.1620    2.1750 ha        1 34A      0.130000
     13 H3          4.0130    0.2070    2.1520 ha        1 34A      0.128000
     14 H6          1.5430   -0.1900   -2.1610 ha        1 34A      0.130000
     15 H71         6.0630    0.1360    1.0480 hc        1 34A      0.039367
     16 H72         6.0700   -0.8680   -0.4630 hc        1 34A      0.039367
     17 H73         6.0370    0.9390   -0.5790 hc        1 34A      0.039367
     18 H81         4.8630   -1.0780   -2.4960 hc        1 34A      0.043700
     19 H82         4.8660    0.7290   -2.6270 hc        1 34A      0.043700
     20 H83         3.5110   -0.2300   -3.3620 hc        1 34A      0.043700
@<TRIPOS>BOND
     1    1    2 1   
     2    1   10 1   
     3    1   11 1   
     4    2    3 ar  
     5    2    7 ar  
     6    3    4 ar  
     7    3   12 1   
     8    4    5 ar  
     9    4   13 1   
    10    5    6 ar  
    11    5    8 1   
    12    6    7 ar  
    13    6    9 1   
    14    7   14 1   
    15    8   15 1   
    16    8   16 1   
    17    8   17 1   
    18    9   18 1   
    19    9   19 1   
    20    9   20 1   
@<TRIPOS>SUBSTRUCTURE
     1 34A         1 TEMP              0 ****  ****    0 ROOT
