@<TRIPOS>MOLECULE
34A
   20    18     1     0     0
SMALL
bcc


@<TRIPOS>ATOM
      1 N1         -3.2220    0.0070    0.4420 n3        1 34A     -0.325000
      2 C1         -1.8030    0.0070    0.4420 c2        1 34A      0.052000
      3 C2         -1.1110    0.0070    1.6430 c2        1 34A     -0.191000
      4 C3          0.2750    0.0070    1.6430 c1        1 34A     -0.090000
      5 C4          0.9690    0.0070    0.4430 c1        1 34A     -0.073500
      6 C5          0.2760    0.0070   -0.7580 c1        1 34A     -0.073500
      7 C6         -1.1100    0.0070   -0.7580 c1        1 34A     -0.186000
      8 C7          2.4810   -0.0170    0.4430 c3        1 34A     -0.174000
      9 C8          1.0320    0.0010   -2.0680 c3        1 34A     -0.174000
     10 HN11       -3.6780    0.7970    0.4380 hn        1 34A      0.180500
     11 HN12       -3.6780   -0.7830    0.4380 hn        1 34A      0.180500
     12 H2         -1.5990    0.0070    2.4880 ha        1 34A      0.130000
     13 H3          0.7640    0.0070    2.4880 ha        1 34A      0.128000
     14 H6         -1.5990    0.0070   -1.6030 ha        1 34A      0.130000
     15 H71         2.8190    0.7730   -0.0210 hc        1 34A      0.080833
     16 H72         2.7940   -0.8210   -0.0150 hc        1 34A      0.080833
     17 H73         2.8070   -0.0190    1.3630 hc        1 34A      0.080833
     18 H81         0.3980    0.0120   -2.8100 hc        1 34A      0.080833
     19 H82         1.6040    0.7910   -2.1170 hc        1 34A      0.080833
     20 H83         1.5830   -0.8030   -2.1220 hc        1 34A      0.080833
@<TRIPOS>BOND
     1    1    2 1   
     2    1   10 1   
     3    1   11 1   
     4    2    3 1   
     5    2    7 1   
     6    3    4 1   
     7    3   12 1   
     8    4   13 1   
     9    5    6 1   
    10    5    8 1   
    11    6    9 1   
    12    7   14 1   
    13    8   15 1   
    14    8   16 1   
    15    8   17 1   
    16    9   18 1   
    17    9   19 1   
    18    9   20 1   
@<TRIPOS>SUBSTRUCTURE
     1 34A         1 TEMP              0 ****  ****    0 ROOT
