@<TRIPOS>MOLECULE
34A
   20    20     1     0     0
SMALL
bcc


@<TRIPOS>ATOM
      1 N1         -0.4010   -0.1230   -2.9760 nh        1 34A     -0.816200
      2 C1         -0.0730   -0.0370   -1.6160 ca        1 34A      0.133600
      3 C2          1.2740   -0.1000   -1.1920 ca        1 34A     -0.191000
      4 C3          1.5800   -0.1090    0.1620 ca        1 34A     -0.090000
      5 C4          0.5770   -0.0490    1.1340 ca        1 34A     -0.120300
      6 C5         -0.7660    0.0210    0.7250 ca        1 34A     -0.041300
      7 C6         -1.0850    0.0310   -0.6320 ca        1 34A     -0.186000
      8 C7          0.9260   -0.0580    2.5730 c3        1 34A     -0.043800
      9 C8         -1.8470    0.0860    1.7370 c3        1 34A     -0.053800
     10 HN11        0.3240    0.1800   -3.5870 hn        1 34A      0.385300
     11 HN12       -1.2890    0.2680   -3.2040 hn        1 34A      0.385300
     12 H2          2.0860   -0.1520   -1.9320 ha        1 34A      0.130000
     13 H3          2.6350   -0.1640    0.4740 ha        1 34A      0.128000
     14 H6         -2.1420    0.0830   -0.9350 ha        1 34A      0.130000
     15 H71         0.5560    0.8750    3.0690 hc        1 34A      0.039367
     16 H72         0.4480   -0.9320    3.0830 hc        1 34A      0.039367
     17 H73         2.0310   -0.1230    2.7240 hc        1 34A      0.039367
     18 H81        -1.8200   -0.8240    2.3880 hc        1 34A      0.043700
     19 H82        -1.7110    0.9840    2.3910 hc        1 34A      0.043700
     20 H83        -2.8550    0.1470    1.2570 hc        1 34A      0.043700
@<TRIPOS>BOND
     1    1    2 1   
     2    1   10 1   
     3    1   11 1   
     4    2    3 ar  
     5    2    7 ar  
     6    3    4 ar  
     7    3   12 1   
     8    4    5 ar  
     9    4   13 1   
    10    5    6 ar  
    11    5    8 1   
    12    6    7 ar  
    13    6    9 1   
    14    7   14 1   
    15    8   15 1   
    16    8   16 1   
    17    8   17 1   
    18    9   18 1   
    19    9   19 1   
    20    9   20 1   
@<TRIPOS>SUBSTRUCTURE
     1 34A         1 TEMP              0 ****  ****    0 ROOT
