@<TRIPOS>MOLECULE
34A
   21    21     1     0     0
SMALL
bcc


@<TRIPOS>ATOM
      1 N1         -0.0650    0.0320   -0.0110 n4        1 34A     -0.697000
      2 C1          1.3980    0.0170   -0.0040 ca        1 34A     -0.086400
      3 C2          2.0860    0.0370    1.2200 ca        1 34A     -0.099000
      4 C3          3.4770    0.0330    1.2060 ca        1 34A     -0.105000
      5 C4          4.1910    0.0080    0.0010 ca        1 34A     -0.005300
      6 C5          3.4900   -0.0140   -1.2230 ca        1 34A     -0.044300
      7 C6          2.0940   -0.0100   -1.2240 ca        1 34A     -0.103000
      8 C7          5.6700    0.0040    0.0130 c3        1 34A     -0.079800
      9 C8          4.2290   -0.0430   -2.5060 c3        1 34A     -0.071800
     10 HN11       -0.4230   -0.3710    0.8620 hn        1 34A      0.461467
     11 HN12       -0.4150   -0.5150   -0.8050 hn        1 34A      0.461467
     12 H2          1.5530    0.0560    2.1850 ha        1 34A      0.156000
     13 H3          4.0240    0.0490    2.1650 ha        1 34A      0.172000
     14 H6          1.5580   -0.0290   -2.1880 ha        1 34A      0.155000
     15 H71         6.0620    0.8970   -0.5390 hc        1 34A      0.072700
     16 H72         6.0750    0.0240    1.0550 hc        1 34A      0.072700
     17 H73         6.0570   -0.9150   -0.5000 hc        1 34A      0.072700
     18 H81         3.5370   -0.0580   -3.3830 hc        1 34A      0.068700
     19 H82         4.8870    0.8600   -2.5900 hc        1 34A      0.068700
     20 H83         4.8820   -0.9520   -2.5530 hc        1 34A      0.068700
     21 H13        -0.3970    1.0000   -0.0970 hn        1 34A      0.461467
@<TRIPOS>BOND
     1    1    2 1   
     2    1   10 1   
     3    1   11 1   
     4    1   21 1   
     5    2    3 ar  
     6    2    7 ar  
     7    3    4 ar  
     8    3   12 1   
     9    4    5 ar  
    10    4   13 1   
    11    5    6 ar  
    12    5    8 1   
    13    6    7 ar  
    14    6    9 1   
    15    7   14 1   
    16    8   15 1   
    17    8   16 1   
    18    8   17 1   
    19    9   18 1   
    20    9   19 1   
    21    9   20 1   
@<TRIPOS>SUBSTRUCTURE
     1 34A         1 TEMP              0 ****  ****    0 ROOT
