@<TRIPOS>MOLECULE
34C
   27    27     1     0     0
SMALL
bcc


@<TRIPOS>ATOM
      1 Cl1         0.1140   -0.2430   -0.5660 cl        1 34C     -0.128400
      2 C1          1.7910   -0.1970   -0.2440 ca        1 34C     -0.000600
      3 C2          2.2160    0.1020    1.0560 ca        1 34C     -0.134000
      4 C3          3.5780    0.1530    1.3690 ca        1 34C     -0.022300
      5 C4          4.5200   -0.0950    0.3570 ca        1 34C     -0.099000
      6 C5          4.1090   -0.4010   -0.9330 ca        1 34C     -0.181000
      7 C6          2.7410   -0.4600   -1.2420 ca        1 34C      0.075100
      8 C7          4.0250    0.4480    2.7500 c3        1 34C     -0.177100
      9 C8          5.1780    1.4800    2.8210 c         1 34C      0.918600
     10 C9          3.0320   -0.2430   -3.5790 c3        1 34C      0.132400
     11 C10         2.0980   -0.2180   -4.7780 c3        1 34C     -0.090400
     12 C11         2.8060    0.3210   -5.9920 c3        1 34C     -0.091100
     13 O1          2.2950   -0.8360   -2.5030 os        1 34C     -0.338900
     14 O2          4.9460    2.5660    3.4180 o         1 34C     -0.838300
     15 O3          6.2940    1.1650    2.3160 o         1 34C     -0.838300
     16 HC21        1.4690    0.3100    1.8370 ha        1 34C      0.138000
     17 HC41        5.5950   -0.0080    0.6160 ha        1 34C      0.197000
     18 HC51        4.8510   -0.5940   -1.7200 ha        1 34C      0.126000
     19 HC71        4.4040   -0.5000    3.2150 hc        1 34C      0.041200
     20 HC72        3.1710    0.8250    3.3680 hc        1 34C      0.041200
     21 HC91        3.9300   -0.8840   -3.7860 h1        1 34C      0.037200
     22 HC92        3.3710    0.7910   -3.3100 h1        1 34C      0.037200
     23 H101        1.2050    0.4140   -4.5340 hc        1 34C      0.051700
     24 H102        1.7240   -1.2570   -4.9740 hc        1 34C      0.051700
     25 H111        3.1680    1.3610   -5.8090 hc        1 34C      0.030367
     26 H112        3.6860   -0.3150   -6.2530 hc        1 34C      0.030367
     27 H113        2.1120    0.3390   -6.8670 hc        1 34C      0.030367
@<TRIPOS>BOND
     1    1    2 1   
     2    2    3 ar  
     3    2    7 ar  
     4    3    4 ar  
     5    3   16 1   
     6    4    5 ar  
     7    4    8 1   
     8    5    6 ar  
     9    5   17 1   
    10    6    7 ar  
    11    6   18 1   
    12    7   13 1   
    13    8    9 1   
    14    8   19 1   
    15    8   20 1   
    16    9   14 1   
    17    9   15 1   
    18   10   11 1   
    19   10   13 1   
    20   10   21 1   
    21   10   22 1   
    22   11   12 1   
    23   11   23 1   
    24   11   24 1   
    25   12   25 1   
    26   12   26 1   
    27   12   27 1   
@<TRIPOS>SUBSTRUCTURE
     1 34C         1 TEMP              0 ****  ****    0 ROOT
