@<TRIPOS>MOLECULE
34C
   27    25     1     0     0
SMALL
bcc


@<TRIPOS>ATOM
      1 CL1        -2.7840   -0.2920    1.1640 cl        1 34C     -0.055000
      2 C1         -1.0410   -0.3340    1.1430 c2        1 34C     -0.075000
      3 C2         -0.3330   -0.3120    2.3350 c2        1 34C     -0.146000
      4 C3          1.0530   -0.3320    2.3180 c1        1 34C      0.001000
      5 C4          1.7310   -0.3750    1.1100 c1        1 34C     -0.128000
      6 C5          1.0230   -0.3970   -0.0820 c1        1 34C     -0.128000
      7 C6         -0.3630   -0.3760   -0.0650 c1        1 34C      0.009000
      8 C7          1.8250   -0.3190    3.6190 c3        1 34C     -0.216000
      9 C8          2.0640   -1.7410    4.0780 c2        1 34C      0.339000
     10 C9         -1.0780    0.7290   -2.0220 c3        1 34C     -0.019000
     11 C10        -1.8050    0.5020   -3.3300 c3        1 34C     -0.165000
     12 C11        -1.2950    1.4770   -4.3670 c3        1 34C     -0.208000
     13 O1         -1.0810   -0.4620   -1.2700 os        1 34C     -0.226000
     14 O2          1.1260   -2.4010    4.5980 o         1 34C     -0.571500
     15 O3          3.2080   -2.2560    3.9630 o         1 34C     -0.571500
     16 HC21       -0.8100   -0.2820    3.1860 ha        1 34C      0.138000
     17 HC41        2.7060   -0.4110    1.0990 ha        1 34C      0.165500
     18 HC51        1.5010   -0.4270   -0.9330 ha        1 34C      0.165500
     19 HC71        2.6850    0.1280    3.4840 hc        1 34C      0.081000
     20 HC72        1.3110    0.1600    4.2990 hc        1 34C      0.081000
     21 HC91       -1.5290    1.4360   -1.5160 h1        1 34C      0.071500
     22 HC92       -0.1530    0.9970   -2.2050 h1        1 34C      0.071500
     23 H101       -1.6460   -0.4140   -3.6370 hc        1 34C      0.090500
     24 H102       -2.7640    0.6390   -3.1970 hc        1 34C      0.090500
     25 H111       -0.3180    1.4130   -4.4240 hc        1 34C      0.069000
     26 H112       -1.5470    2.3890   -4.1100 hc        1 34C      0.069000
     27 H113       -1.6880    1.2630   -5.2390 hc        1 34C      0.069000
@<TRIPOS>BOND
     1    1    2 1   
     2    2    3 1   
     3    2    7 1   
     4    3    4 1   
     5    3   16 1   
     6    4    8 1   
     7    5    6 1   
     8    5   17 1   
     9    6   18 1   
    10    7   13 1   
    11    8    9 1   
    12    8   19 1   
    13    8   20 1   
    14    9   14 1   
    15    9   15 1   
    16   10   11 1   
    17   10   13 1   
    18   10   21 1   
    19   10   22 1   
    20   11   12 1   
    21   11   23 1   
    22   11   24 1   
    23   12   25 1   
    24   12   26 1   
    25   12   27 1   
@<TRIPOS>SUBSTRUCTURE
     1 34C         1 TEMP              0 ****  ****    0 ROOT
