@<TRIPOS>MOLECULE
34C
   27    27     1     0     0
SMALL
bcc


@<TRIPOS>ATOM
      1 CL1         0.1260   -0.2610   -0.5220 cl        1 34C     -0.128400
      2 C1          1.8070   -0.2070   -0.2240 ca        1 34C     -0.000600
      3 C2          2.2480    0.0910    1.0710 ca        1 34C     -0.134000
      4 C3          3.6140    0.1490    1.3650 ca        1 34C     -0.022300
      5 C4          4.5440   -0.0920    0.3390 ca        1 34C     -0.099000
      6 C5          4.1170   -0.3970   -0.9460 ca        1 34C     -0.181000
      7 C6          2.7440   -0.4620   -1.2360 ca        1 34C      0.075100
      8 C7          4.0800    0.4430    2.7400 c3        1 34C     -0.177100
      9 C8          5.2280    1.4810    2.7970 c         1 34C      0.918600
     10 C9          3.0010   -0.2390   -3.5770 c3        1 34C      0.132400
     11 C10         2.0510   -0.2170   -4.7620 c3        1 34C     -0.090400
     12 C11         2.7390    0.3280   -5.9850 c3        1 34C     -0.091100
     13 O1          2.2820   -0.8380   -2.4910 os        1 34C     -0.338900
     14 O2          4.9990    2.5640    3.4000 o         1 34C     -0.838300
     15 O3          6.3380    1.1730    2.2750 o         1 34C     -0.838300
     16 HC21        1.5120    0.2940    1.8630 ha        1 34C      0.138000
     17 HC41        5.6210    0.0000    0.5830 ha        1 34C      0.197000
     18 HC51        4.8480   -0.5840   -1.7440 ha        1 34C      0.126000
     19 HC71        4.4710   -0.5050    3.1970 hc        1 34C      0.041200
     20 HC72        3.2320    0.8140    3.3700 hc        1 34C      0.041200
     21 HC91        3.9000   -0.8750   -3.7970 h1        1 34C      0.037200
     22 HC92        3.3380    0.7960   -3.3100 h1        1 34C      0.037200
     23 H101        1.1580    0.4100   -4.5050 hc        1 34C      0.051700
     24 H102        1.6790   -1.2570   -4.9550 hc        1 34C      0.051700
     25 H111        3.0990    1.3700   -5.8050 hc        1 34C      0.030367
     26 H112        3.6190   -0.3030   -6.2590 hc        1 34C      0.030367
     27 H113        2.0330    0.3440   -6.8500 hc        1 34C      0.030367
@<TRIPOS>BOND
     1    1    2 1   
     2    2    3 ar  
     3    2    7 ar  
     4    3    4 ar  
     5    3   16 1   
     6    4    5 ar  
     7    4    8 1   
     8    5    6 ar  
     9    5   17 1   
    10    6    7 ar  
    11    6   18 1   
    12    7   13 1   
    13    8    9 1   
    14    8   19 1   
    15    8   20 1   
    16    9   14 1   
    17    9   15 1   
    18   10   11 1   
    19   10   13 1   
    20   10   21 1   
    21   10   22 1   
    22   11   12 1   
    23   11   23 1   
    24   11   24 1   
    25   12   25 1   
    26   12   26 1   
    27   12   27 1   
@<TRIPOS>SUBSTRUCTURE
     1 34C         1 TEMP              0 ****  ****    0 ROOT
