@<TRIPOS>MOLECULE
34C
   27    27     1     0     0
SMALL
bcc


@<TRIPOS>ATOM
      1 CL1        -2.5570    0.1370    1.2860 cl        1 34C     -0.128400
      2 C1         -1.1080    0.3950    0.4210 ca        1 34C     -0.000600
      3 C2         -1.1430    0.3400   -0.9770 ca        1 34C     -0.134000
      4 C3          0.0180    0.5420   -1.7300 ca        1 34C     -0.022300
      5 C4          1.2280    0.7990   -1.0630 ca        1 34C     -0.099000
      6 C5          1.2720    0.8650    0.3220 ca        1 34C     -0.181000
      7 C6          0.1030    0.6690    1.0750 ca        1 34C      0.075100
      8 C7         -0.0250    0.5050   -3.2100 c3        1 34C     -0.177100
      9 C8          1.1240   -0.3170   -3.8440 c         1 34C      0.918600
     10 C9          1.2230    0.1960    3.1040 c3        1 34C      0.132400
     11 C10         0.7820   -0.1310    4.5210 c3        1 34C     -0.090400
     12 C11         1.9240   -0.7070    5.3140 c3        1 34C     -0.091100
     13 O1          0.0970    0.8020    2.4580 os        1 34C     -0.338900
     14 O2          0.8060   -1.3380   -4.5110 o         1 34C     -0.838300
     15 O3          2.3090    0.0980   -3.6920 o         1 34C     -0.838300
     16 HC21       -2.0930    0.1220   -1.4890 ha        1 34C      0.138000
     17 HC41        2.1440    0.9140   -1.6770 ha        1 34C      0.197000
     18 HC51        2.2210    1.0650    0.8380 ha        1 34C      0.126000
     19 HC71       -1.0010    0.0840   -3.5640 hc        1 34C      0.041200
     20 HC72        0.0680    1.5530   -3.5990 hc        1 34C      0.041200
     21 HC91        2.0660    0.9360    3.1090 h1        1 34C      0.037200
     22 HC92        1.5460   -0.7290    2.5590 h1        1 34C      0.037200
     23 H101       -0.0710   -0.8570    4.4820 hc        1 34C      0.051700
     24 H102        0.3990    0.8020    5.0110 hc        1 34C      0.051700
     25 H111        1.5910   -0.9470    6.3520 hc        1 34C      0.030367
     26 H112        2.3020   -1.6450    4.8390 hc        1 34C      0.030367
     27 H113        2.7710    0.0190    5.3750 hc        1 34C      0.030367
@<TRIPOS>BOND
     1    1    2 1   
     2    2    3 ar  
     3    2    7 ar  
     4    3    4 ar  
     5    3   16 1   
     6    4    5 ar  
     7    4    8 1   
     8    5    6 ar  
     9    5   17 1   
    10    6    7 ar  
    11    6   18 1   
    12    7   13 1   
    13    8    9 1   
    14    8   19 1   
    15    8   20 1   
    16    9   14 1   
    17    9   15 1   
    18   10   11 1   
    19   10   13 1   
    20   10   21 1   
    21   10   22 1   
    22   11   12 1   
    23   11   23 1   
    24   11   24 1   
    25   12   25 1   
    26   12   26 1   
    27   12   27 1   
@<TRIPOS>SUBSTRUCTURE
     1 34C         1 TEMP              0 ****  ****    0 ROOT
