@<TRIPOS>MOLECULE
34D
   16    16     1     0     0
SMALL
bcc


@<TRIPOS>ATOM
      1 C2          0.0820    0.1110   -0.0090 ca        1 34D     -0.213000
      2 C3          1.4820    0.1290    0.0010 ca        1 34D      0.111100
      3 O3          2.2240    0.1390   -1.1670 oh        1 34D     -0.525100
      4 C4          2.2100    0.1370    1.1990 ca        1 34D     -0.208000
      5 C5          1.4810    0.1270    2.3960 ca        1 34D      0.111100
      6 C1         -0.6200    0.1010    1.1980 ca        1 34D     -0.060600
      7 C6          0.0810    0.1090    2.4060 ca        1 34D     -0.213000
      8 C          -2.1450    0.0810    1.1980 c         1 34D      0.908200
      9 O1         -2.7340    0.0730    2.3150 o         1 34D     -0.827300
     10 O2         -2.7330    0.0740    0.0810 o         1 34D     -0.827300
     11 O5          2.2230    0.1360    3.5640 oh        1 34D     -0.525100
     12 H2         -0.4900    0.1040   -0.9500 ha        1 34D      0.155000
     13 H3          1.5940    0.1310   -1.9010 ho        1 34D      0.410000
     14 H4          3.3040    0.1510    1.1990 ha        1 34D      0.139000
     15 H6         -0.4900    0.1010    3.3470 ha        1 34D      0.155000
     16 H5          1.5930    0.1280    4.2980 ho        1 34D      0.410000
@<TRIPOS>BOND
     1    1    2 ar  
     2    1    6 ar  
     3    1   12 1   
     4    2    3 1   
     5    2    4 ar  
     6    3   13 1   
     7    4    5 ar  
     8    4   14 1   
     9    5    7 ar  
    10    5   11 1   
    11    6    7 ar  
    12    6    8 1   
    13    7   15 1   
    14    8    9 1   
    15    8   10 1   
    16   11   16 1   
@<TRIPOS>SUBSTRUCTURE
     1 34D         1 TEMP              0 ****  ****    0 ROOT
