@<TRIPOS>MOLECULE
34D
   16    13     1     0     0
SMALL
bcc


@<TRIPOS>ATOM
      1 C2         -0.4390    0.0010   -1.2000 c1        1 34D     -0.155500
      2 C3          0.9470    0.0010   -1.2000 c1        1 34D      0.094600
      3 O3          1.6510   -0.0060   -2.4190 oh        1 34D     -0.508600
      4 C4          1.6400    0.0010    0.0000 c1        1 34D     -0.153000
      5 C5          0.9470    0.0010    1.2000 c1        1 34D      0.094600
      6 C1         -1.1320    0.0010    0.0000 cg        1 34D     -0.009200
      7 C6         -0.4390    0.0010    1.2000 c1        1 34D     -0.153000
      8 C          -2.6440   -0.0070    0.0000 c         1 34D      0.856800
      9 O1         -3.2800    1.0770    0.0800 o         1 34D     -0.827300
     10 O2         -3.2680   -1.0980   -0.0810 o         1 34D     -0.827300
     11 O5          1.6510    0.0070    2.4190 oh        1 34D     -0.508600
     12 H2         -0.9270    0.0010   -2.0460 ha        1 34D      0.097500
     13 H3          1.8010    0.8300   -2.6790 ho        1 34D      0.410000
     14 H4          2.6170    0.0010    0.0000 ha        1 34D      0.089500
     15 H6         -0.9270    0.0170    2.0460 ha        1 34D      0.089500
     16 H5          1.7990   -0.8280    2.6790 ho        1 34D      0.410000
@<TRIPOS>BOND
     1    1    6 3   
     2    1   12 1   
     3    2    3 1   
     4    2    4 3   
     5    3   13 1   
     6    4   14 1   
     7    5    7 3   
     8    5   11 1   
     9    6    8 1   
    10    7   15 1   
    11    8    9 1   
    12    8   10 1   
    13   11   16 1   
@<TRIPOS>SUBSTRUCTURE
     1 34D         1 TEMP              0 ****  ****    0 ROOT
