@<TRIPOS>MOLECULE
34D
   16    16     1     0     0
SMALL
bcc


@<TRIPOS>ATOM
      1 C2         -0.0170    1.1980    0.0990 ca        1 34D     -0.213000
      2 C3         -1.4170    1.2390    0.1020 ca        1 34D      0.111100
      3 O3         -2.1160    2.4330    0.1020 oh        1 34D     -0.525100
      4 C4         -2.1880    0.0690    0.1040 ca        1 34D     -0.208000
      5 C5         -1.5040   -1.1540    0.1040 ca        1 34D      0.111100
      6 C1          0.6400   -0.0340    0.0990 ca        1 34D     -0.060600
      7 C6         -0.1050   -1.2160    0.1020 ca        1 34D     -0.213000
      8 C           2.1640   -0.0900    0.0960 c         1 34D      0.908200
      9 O1          2.7110   -1.2280    0.0960 o         1 34D     -0.827300
     10 O2          2.7930    1.0050    0.0940 o         1 34D     -0.827300
     11 O5         -2.2880   -2.2950    0.1070 oh        1 34D     -0.525100
     12 H2          0.5880    2.1180    0.0970 ha        1 34D      0.155000
     13 H3         -1.4600    3.1440    0.1000 ho        1 34D      0.410000
     14 H4         -3.2820    0.1090    0.1060 ha        1 34D      0.139000
     15 H6          0.4310   -2.1770    0.1010 ha        1 34D      0.155000
     16 H5         -1.6860   -3.0510    0.1060 ho        1 34D      0.410000
@<TRIPOS>BOND
     1    1    2 ar  
     2    1    6 ar  
     3    1   12 1   
     4    2    3 1   
     5    2    4 ar  
     6    3   13 1   
     7    4    5 ar  
     8    4   14 1   
     9    5    7 ar  
    10    5   11 1   
    11    6    7 ar  
    12    6    8 1   
    13    7   15 1   
    14    8    9 1   
    15    8   10 1   
    16   11   16 1   
@<TRIPOS>SUBSTRUCTURE
     1 34D         1 TEMP              0 ****  ****    0 ROOT
