@<TRIPOS>MOLECULE
34F
   30    29     1     0     0
SMALL
bcc


@<TRIPOS>ATOM
      1 C1          1.0280    1.7890   -0.8710 c2        1 34F      0.294000
      2 N1          2.5240    1.6090   -1.0620 n4        1 34F      0.054000
      3 O1          0.4730    1.2260    0.0550 o         1 34F     -0.228000
      4 CL1         2.3050   -3.9460   -7.4860 cl        1 34F     -0.077000
      5 C2          2.8360    0.5980   -2.1390 c3        1 34F     -0.135000
      6 O2          3.1350    1.2290    0.0860 oh        1 34F     -0.260000
      7 CL2        -0.6620   -4.1040   -6.3960 cl        1 34F     -0.074000
      8 C3          2.7110    1.1810   -3.5570 c3        1 34F     -0.042000
      9 C4          3.0500    0.1270   -4.5060 c2        1 34F     -0.509000
     10 C6          2.1680   -0.8440   -4.9390 ca        1 34F      0.129000
     11 C7          2.5910   -1.8220   -5.8980 ca        1 34F     -0.247000
     12 C8          1.7320   -2.8080   -6.3380 ca        1 34F      0.024000
     13 C9          0.4120   -2.8890   -5.8640 ca        1 34F     -0.220000
     14 C10        -0.0260   -1.9420   -4.9300 ca        1 34F     -0.047000
     15 C11         0.8200   -0.9520   -4.4760 ca        1 34F     -0.280000
     16 PA1         1.3960    4.9310    0.9370 p3        1 34F      2.444000
     17 OP1         1.8310    3.6470    0.3100 o         1 34F     -1.133000
     18 OP2         2.0680    5.3580    2.1630 o         1 34F     -1.133000
     19 OP3         0.3360    5.6680    0.2490 o         1 34F     -1.133000
     20 H1          0.6010    2.4480   -1.6530 hx        1 34F      0.204000
     21 H2          2.1290   -0.2670   -2.0120 hx        1 34F      0.136000
     22 H2A         3.8850    0.2330   -1.9640 hx        1 34F      0.136000
     23 HO2         2.8470    1.8620    0.7920 ho        1 34F      0.289000
     24 H3          1.6660    1.5670   -3.7030 hc        1 34F      0.057500
     25 H3A         3.4140    2.0510   -3.6600 hc        1 34F      0.057500
     26 H4          4.0740    0.1330   -4.8930 ha        1 34F      0.106000
     27 H7          3.6190   -1.7660   -6.2780 ha        1 34F      0.124000
     28 H10        -1.0590   -1.9960   -4.5560 ha        1 34F      0.111000
     29 H11         0.4500   -0.2210   -3.7470 ha        1 34F      0.093000
     30 H111        2.8920    2.5460   -1.3340 hn        1 34F      0.262000
@<TRIPOS>BOND
     1    1    2 1   
     2    1    3 1   
     3    1   20 1   
     4    2    5 1   
     5    2    6 1   
     6    2   30 1   
     7    4   12 1   
     8    5    8 1   
     9    5   21 1   
    10    5   22 1   
    11    6   23 1   
    12    7   13 1   
    13    8    9 1   
    14    8   24 1   
    15    8   25 1   
    16    9   10 1   
    17    9   26 1   
    18   10   11 1   
    19   10   15 1   
    20   11   12 1   
    21   11   27 1   
    22   12   13 1   
    23   13   14 1   
    24   14   15 1   
    25   14   28 1   
    26   15   29 1   
    27   16   17 1   
    28   16   18 1   
    29   16   19 1   
@<TRIPOS>SUBSTRUCTURE
     1 34F         1 TEMP              0 ****  ****    0 ROOT
