@<TRIPOS>MOLECULE
34F
   29    27     1     0     0
SMALL
bcc


@<TRIPOS>ATOM
      1 C1         -1.0350   -1.0920    4.2120 c1        1 34F      0.217000
      2 N1         -0.2750   -0.1900    3.3890 n2        1 34F     -0.195000
      3 O1         -1.7870   -0.6500    5.0680 o         1 34F     -0.365000
      4 CL1        -2.7280    1.1900   -3.8870 cl        1 34F     -0.101000
      5 C2          0.3540   -0.6730    2.1650 c3        1 34F     -0.048000
      6 O2         -0.1110    1.1190    3.7740 oh        1 34F     -0.241000
      7 CL2        -1.4710   -1.1250   -5.5780 cl        1 34F     -0.096000
      8 C3         -0.2400    0.0790    0.9480 c3        1 34F     -0.051000
      9 C4          0.8200    0.2130   -0.1350 c3        1 34F     -0.470000
     10 C6          0.2150   -0.1510   -1.4920 c2        1 34F      0.113000
     11 C7         -0.8560    0.5790   -1.9950 c2        1 34F     -0.281000
     12 C8         -1.3570    0.2960   -3.2660 c2        1 34F      0.043000
     13 C9         -0.7880   -0.7110   -4.0240 c2        1 34F     -0.254000
     14 C10         0.2840   -1.4410   -3.5190 c1        1 34F     -0.052000
     15 C11         0.7840   -1.1590   -2.2530 c1        1 34F     -0.265000
     16 PA1         1.4220    1.9090   -0.1790 p5        1 34F      1.402500
     17 OP1         2.3540    2.1410    0.9780 o         1 34F     -0.800500
     18 OP2         2.1670    2.1510   -1.4880 o         1 34F     -0.800500
     19 OP3         0.2550    2.8590   -0.0820 o         1 34F     -0.800500
     20 H1         -0.9180   -2.0540    4.1170 ha        1 34F      0.143000
     21 H2          0.1870   -1.6290    2.0690 h1        1 34F      0.089000
     22 H2A         1.3060   -0.5150    2.2080 h1        1 34F      0.089000
     23 HO2         0.3550    1.1490    4.5390 ho        1 34F      0.212000
     24 H3         -0.9930   -0.4150    0.6010 hc        1 34F      0.051000
     25 H3A        -0.5330    0.9640    1.2260 hc        1 34F      0.051000
     26 H4          1.5580   -0.3850    0.0600 hc        1 34F      0.094000
     27 H7         -1.2100    1.3320   -1.4910 ha        1 34F      0.115000
     28 H10         0.6810   -2.1420   -4.0480 ha        1 34F      0.100000
     29 H11         1.5600   -1.6510   -1.9110 ha        1 34F      0.101000
@<TRIPOS>BOND
     1    1    3 1   
     2    1   20 1   
     3    2    5 1   
     4    2    6 1   
     5    4   12 1   
     6    5    8 1   
     7    5   21 1   
     8    5   22 1   
     9    6   23 1   
    10    7   13 1   
    11    8    9 1   
    12    8   24 1   
    13    8   25 1   
    14    9   10 1   
    15    9   16 1   
    16    9   26 1   
    17   10   11 1   
    18   10   15 1   
    19   11   12 1   
    20   11   27 1   
    21   12   13 1   
    22   13   14 1   
    23   14   28 1   
    24   15   29 1   
    25   16   17 1   
    26   16   18 1   
    27   16   19 1   
@<TRIPOS>SUBSTRUCTURE
     1 34F         1 TEMP              0 ****  ****    0 ROOT
