@<TRIPOS>MOLECULE
34F
   30    29     1     0     0
SMALL
bcc


@<TRIPOS>ATOM
      1 C1          0.9010    1.9390   -1.0300 c2        1 34F      0.294000
      2 N1          2.3660    1.5410   -0.9730 n4        1 34F      0.054000
      3 O1          0.1260    1.4810   -0.2100 o         1 34F     -0.228000
      4 CL1         2.4020   -4.0630   -7.3590 cl        1 34F     -0.077000
      5 C2          2.6980    0.4730   -1.9880 c3        1 34F     -0.135000
      6 O2          2.7190    1.1000    0.2590 oh        1 34F     -0.260000
      7 CL2        -0.6950   -3.7800   -6.7690 cl        1 34F     -0.074000
      8 C3          2.8890    1.0380   -3.4050 c3        1 34F     -0.042000
      9 C4          3.2240   -0.0730   -4.2890 c2        1 34F     -0.509000
     10 C6          2.2950   -0.9200   -4.8620 ca        1 34F      0.129000
     11 C7          2.7240   -1.9670   -5.7410 ca        1 34F     -0.247000
     12 C8          1.8170   -2.8320   -6.3180 ca        1 34F      0.024000
     13 C9          0.4400   -2.7170   -6.0660 ca        1 34F     -0.220000
     14 C10        -0.0040   -1.6990   -5.2140 ca        1 34F     -0.047000
     15 C11         0.8890   -0.8280   -4.6260 ca        1 34F     -0.280000
     16 PA1         1.4240    5.0320    0.8250 p3        1 34F      2.444000
     17 OP1         1.7630    3.6850    0.2740 o         1 34F     -1.133000
     18 OP2         1.9420    5.3820    2.1460 o         1 34F     -1.133000
     19 OP3         0.6110    5.9000   -0.0260 o         1 34F     -1.133000
     20 H1          0.7090    2.6370   -1.8690 hx        1 34F      0.204000
     21 H2          1.8620   -0.2790   -1.9800 hx        1 34F      0.136000
     22 H2A         3.6420   -0.0340   -1.6450 hx        1 34F      0.136000
     23 HO2         2.4150    1.7820    0.9100 ho        1 34F      0.289000
     24 H3          3.7160    1.7980   -3.3900 hc        1 34F      0.057500
     25 H3A         1.9470    1.5630   -3.7200 hc        1 34F      0.057500
     26 H4          4.2870   -0.2190   -4.5030 ha        1 34F      0.106000
     27 H7          3.7980   -2.0640   -5.9480 ha        1 34F      0.124000
     28 H10        -1.0820   -1.5990   -5.0130 ha        1 34F      0.111000
     29 H11         0.5130   -0.0360   -3.9650 ha        1 34F      0.093000
     30 H111        2.9060    2.4080   -1.1770 hn        1 34F      0.262000
@<TRIPOS>BOND
     1    1    2 1   
     2    1    3 1   
     3    1   20 1   
     4    2    5 1   
     5    2    6 1   
     6    2   30 1   
     7    4   12 1   
     8    5    8 1   
     9    5   21 1   
    10    5   22 1   
    11    6   23 1   
    12    7   13 1   
    13    8    9 1   
    14    8   24 1   
    15    8   25 1   
    16    9   10 1   
    17    9   26 1   
    18   10   11 1   
    19   10   15 1   
    20   11   12 1   
    21   11   27 1   
    22   12   13 1   
    23   13   14 1   
    24   14   15 1   
    25   14   28 1   
    26   15   29 1   
    27   16   17 1   
    28   16   18 1   
    29   16   19 1   
@<TRIPOS>SUBSTRUCTURE
     1 34F         1 TEMP              0 ****  ****    0 ROOT
