@<TRIPOS>MOLECULE
34F
   30    29     1     0     0
SMALL
bcc


@<TRIPOS>ATOM
      1 C1         -1.4520   -0.4470    0.3130 c1        1 34F      0.225000
      2 N1          1.4490    0.2170    0.1840 n7        1 34F     -0.174000
      3 O1         -0.9480   -1.4310    0.7050 o         1 34F     -0.225000
      4 Cl1         3.5100   -2.1840   -6.8800 cl        1 34F     -0.032000
      5 C2          2.1460    0.1320   -1.1120 c3        1 34F     -0.127000
      6 O2          1.9490   -0.6900    1.0440 oh        1 34F     -0.294000
      7 Cl2         0.3630   -2.4620   -7.0160 cl        1 34F     -0.039000
      8 C3          2.2520    1.4660   -1.8350 c3        1 34F     -0.161000
      9 C4          2.9480    1.3470   -3.1670 c3        1 34F     -0.702000
     10 C6          2.2930    0.4510   -4.1370 ca        1 34F      0.030000
     11 C7          3.0860   -0.3420   -4.9860 ca        1 34F     -0.111000
     12 C8          2.5010   -1.2400   -5.8810 ca        1 34F     -0.053000
     13 C9          1.1080   -1.3650   -5.9460 ca        1 34F     -0.084000
     14 C10         0.3100   -0.5720   -5.1170 ca        1 34F     -0.123000
     15 C11         0.8960    0.3180   -4.2230 ca        1 34F     -0.121000
     16 PA1         3.1250    2.9910   -3.7250 p5        1 34F      1.970000
     17 OP1         3.5460    3.8290   -2.5750 o         1 34F     -0.851000
     18 OP2         3.8150    2.9870   -5.0290 o         1 34F     -0.851000
     19 OP3         1.5630    3.4710   -3.9010 oh        1 34F     -0.827000
     20 H1          1.3600    4.2020   -3.3260 ho        1 34F      0.226000
     21 H2          1.5510   -0.5870   -1.7420 h1        1 34F      0.084500
     22 H2A         3.1790   -0.3020   -0.9880 h1        1 34F      0.084500
     23 HO2         1.3170   -1.4330    1.0160 ho        1 34F      0.213000
     24 H3          1.2370    1.9170   -1.9990 hc        1 34F      0.113000
     25 H3A         2.8410    2.2030   -1.2160 hc        1 34F      0.113000
     26 H4          3.9940    0.9740   -2.9900 hc        1 34F      0.118000
     27 H7          4.1820   -0.2310   -4.9640 ha        1 34F      0.158000
     28 H10        -0.7850   -0.6490   -5.1740 ha        1 34F      0.134000
     29 H11         0.2500    0.9510   -3.5940 ha        1 34F      0.151000
     30 H111        1.6590    1.1280    0.5940 hn        1 34F      0.157000
@<TRIPOS>BOND
     1    1    3 1   
     2    2    5 1   
     3    2    6 1   
     4    2   30 1   
     5    4   12 1   
     6    5    8 1   
     7    5   21 1   
     8    5   22 1   
     9    6   23 1   
    10    7   13 1   
    11    8    9 1   
    12    8   24 1   
    13    8   25 1   
    14    9   10 1   
    15    9   16 1   
    16    9   26 1   
    17   10   11 1   
    18   10   15 1   
    19   11   12 1   
    20   11   27 1   
    21   12   13 1   
    22   13   14 1   
    23   14   15 1   
    24   14   28 1   
    25   15   29 1   
    26   16   17 1   
    27   16   18 1   
    28   16   19 1   
    29   19   20 1   
@<TRIPOS>SUBSTRUCTURE
     1 34F         1 TEMP              0 ****  ****    0 ROOT
