@<TRIPOS>MOLECULE
34G
   75    79     1     0     0
SMALL
bcc


@<TRIPOS>ATOM
      1 CAA        -0.0210   -0.0000   -0.1530 c3        1 34G     -0.094100
      2 CAJ         1.4830   -0.0460   -0.0650 c3        1 34G     -0.076400
      3 CBE         1.9970   -0.0770    1.3660 c3        1 34G     -0.096700
      4 CAQ         1.4950    1.1650    2.1220 c3        1 34G      0.169800
      5 NBI         1.9700    1.3410    3.4820 n3        1 34G     -0.713600
      6 CAN         1.2830    0.5030    4.4540 c3        1 34G      0.168800
      7 CAM         1.6560    0.8540    5.8940 c3        1 34G     -0.029100
      8 CAX         3.1160    1.0630    6.0740 ca        1 34G     -0.063300
      9 CAG         3.6460    1.0880    7.3730 ca        1 34G     -0.181000
     10 CAZ         5.0020    1.3250    7.5740 ca        1 34G      0.103100
     11 OAT         5.6260    1.3630    8.8060 os        1 34G     -0.304900
     12 CAC         4.7790    1.1930    9.9350 c3        1 34G      0.110700
     13 CBB         5.8510    1.5480    6.4550 ca        1 34G      0.101100
     14 OAV         7.1790    1.7790    6.7580 os        1 34G     -0.305900
     15 CAE         8.0340    2.0270    5.6480 c3        1 34G      0.110700
     16 CAI         5.3200    1.5180    5.1690 ca        1 34G     -0.175000
     17 CBD         3.9530    1.2690    4.9750 ca        1 34G     -0.068300
     18 CBH         3.4290    1.2300    3.5610 c3        1 34G      0.225800
     19 CAP         4.0040   -0.0150    2.8600 c3        1 34G     -0.104400
     20 CBF         3.5290   -0.1240    1.4190 c3        1 34G     -0.053700
     21 CAO         4.0490   -1.4030    0.7780 c3        1 34G     -0.076400
     22 CBG         5.5790   -1.5840    0.8470 c3        1 34G      0.213800
     23 NAR         6.2860   -0.4200    0.3140 n3        1 34G     -0.799200
     24 CAK         7.6140   -0.7160   -0.1760 c3        1 34G      0.155800
     25 CAL         7.6730   -1.8190   -1.2330 c3        1 34G     -0.071100
     26 CAW         6.9250   -3.0180   -0.7700 ca        1 34G     -0.073300
     27 CAF         7.2360   -4.2660   -1.3320 ca        1 34G     -0.178000
     28 CBC         5.9470   -2.9160    0.2250 ca        1 34G     -0.101300
     29 CAH         5.3250   -4.0800    0.7010 ca        1 34G     -0.174000
     30 CBA         5.6310   -5.3230    0.1540 ca        1 34G      0.102100
     31 OAU         5.0640   -6.5210    0.5430 os        1 34G     -0.303900
     32 CAD         4.1490   -6.4540    1.6290 c3        1 34G      0.110700
     33 CAY         6.5930   -5.4170   -0.8880 ca        1 34G      0.105100
     34 OAS         6.8160   -6.6890   -1.3760 os        1 34G     -0.303900
     35 CAB         7.7890   -6.7960   -2.4080 c3        1 34G      0.110700
     36 H1         -0.4810   -0.7690    0.5140 hc        1 34G      0.034367
     37 H2         -0.3490   -0.2020   -1.2020 hc        1 34G      0.034367
     38 H3         -0.4120    1.0030    0.1440 hc        1 34G      0.034367
     39 H4          1.9180    0.8410   -0.5970 hc        1 34G      0.040700
     40 H5          1.8400   -0.9650   -0.6020 hc        1 34G      0.040700
     41 H6          1.5940   -0.9970    1.8730 hc        1 34G      0.048700
     42 H7          0.3700    1.1460    2.1440 h1        1 34G      0.053200
     43 H8          1.8160    2.0820    1.5490 h1        1 34G      0.053200
     44 H10         0.1750    0.6610    4.3250 h1        1 34G      0.031200
     45 H11         1.4910   -0.5940    4.2840 h1        1 34G      0.031200
     46 H12         1.2960    0.0290    6.5630 hc        1 34G      0.054200
     47 H13         1.1220    1.7950    6.1990 hc        1 34G      0.054200
     48 H14         2.9730    0.9220    8.2270 ha        1 34G      0.138000
     49 H15         5.4820    1.2820   10.8020 h1        1 34G      0.042700
     50 H16         4.2990    0.1840    9.9210 h1        1 34G      0.042700
     51 H17         4.0020    1.9940    9.9750 h1        1 34G      0.042700
     52 H18         8.0660    1.1430    4.9670 h1        1 34G      0.043367
     53 H19         9.0330    2.1940    6.1250 h1        1 34G      0.043367
     54 H20         7.7070    2.9380    5.0900 h1        1 34G      0.043367
     55 H21         5.9630    1.6930    4.2930 ha        1 34G      0.144000
     56 H22         3.8260    2.1440    3.0190 h1        1 34G      0.068700
     57 H23         5.1220    0.0620    2.8840 hc        1 34G      0.054700
     58 H24         3.7100   -0.9380    3.4240 hc        1 34G      0.054700
     59 H25         3.9190    0.7650    0.8470 hc        1 34G      0.056700
     60 H26         3.7410   -1.4330   -0.3000 hc        1 34G      0.046700
     61 H27         3.5680   -2.2770    1.2910 hc        1 34G      0.046700
     62 H28         5.8830   -1.6510    1.9370 h1        1 34G      0.070700
     63 H29         5.7420   -0.0030   -0.4220 hn        1 34G      0.351800
     64 H31         8.2450   -1.0220    0.7050 h1        1 34G      0.055200
     65 H32         8.0470    0.2320   -0.6020 h1        1 34G      0.055200
     66 H33         8.7450   -2.0810   -1.4320 hc        1 34G      0.053200
     67 H34         7.2320   -1.4530   -2.1990 hc        1 34G      0.053200
     68 H35         7.9990   -4.3200   -2.1220 ha        1 34G      0.139000
     69 H36         4.5970   -4.0080    1.5220 ha        1 34G      0.141000
     70 H37         4.6470   -6.0520    2.5450 h1        1 34G      0.043700
     71 H38         3.2610   -5.8300    1.3610 h1        1 34G      0.043700
     72 H39         3.8490   -7.5220    1.7790 h1        1 34G      0.043700
     73 H40         7.7990   -7.8910   -2.6400 h1        1 34G      0.043700
     74 H41         8.7910   -6.4620   -2.0450 h1        1 34G      0.043700
     75 H42         7.4820   -6.2060   -3.3060 h1        1 34G      0.043700
@<TRIPOS>BOND
     1    1    2 1   
     2    1   36 1   
     3    1   37 1   
     4    1   38 1   
     5    2    3 1   
     6    2   39 1   
     7    2   40 1   
     8    3    4 1   
     9    3   20 1   
    10    3   41 1   
    11    4    5 1   
    12    4   42 1   
    13    4   43 1   
    14    5    6 1   
    15    5   18 1   
    16    6    7 1   
    17    6   44 1   
    18    6   45 1   
    19    7    8 1   
    20    7   46 1   
    21    7   47 1   
    22    8    9 ar  
    23    8   17 ar  
    24    9   10 ar  
    25    9   48 1   
    26   10   11 1   
    27   10   13 ar  
    28   11   12 1   
    29   12   49 1   
    30   12   50 1   
    31   12   51 1   
    32   13   14 1   
    33   13   16 ar  
    34   14   15 1   
    35   15   52 1   
    36   15   53 1   
    37   15   54 1   
    38   16   17 ar  
    39   16   55 1   
    40   17   18 1   
    41   18   19 1   
    42   18   56 1   
    43   19   20 1   
    44   19   57 1   
    45   19   58 1   
    46   20   21 1   
    47   20   59 1   
    48   21   22 1   
    49   21   60 1   
    50   21   61 1   
    51   22   23 1   
    52   22   28 1   
    53   22   62 1   
    54   23   24 1   
    55   23   63 1   
    56   24   25 1   
    57   24   64 1   
    58   24   65 1   
    59   25   26 1   
    60   25   66 1   
    61   25   67 1   
    62   26   27 ar  
    63   26   28 ar  
    64   27   33 ar  
    65   27   68 1   
    66   28   29 ar  
    67   29   30 ar  
    68   29   69 1   
    69   30   31 1   
    70   30   33 ar  
    71   31   32 1   
    72   32   70 1   
    73   32   71 1   
    74   32   72 1   
    75   33   34 1   
    76   34   35 1   
    77   35   73 1   
    78   35   74 1   
    79   35   75 1   
@<TRIPOS>SUBSTRUCTURE
     1 34G         1 TEMP              0 ****  ****    0 ROOT
