@<TRIPOS>MOLECULE
34G
   75    79     1     0     0
SMALL
bcc


@<TRIPOS>ATOM
      1 CAA        -0.0210   -0.0020   -0.1550 c3        1 34G     -0.094100
      2 CAJ         1.4840   -0.0480   -0.0670 c3        1 34G     -0.076400
      3 CBE         1.9970   -0.0790    1.3640 c3        1 34G     -0.096700
      4 CAQ         1.4940    1.1630    2.1200 c3        1 34G      0.169800
      5 NBI         1.9680    1.3390    3.4800 n3        1 34G     -0.713600
      6 CAN         1.2810    0.5010    4.4520 c3        1 34G      0.168800
      7 CAM         1.6540    0.8520    5.8920 c3        1 34G     -0.029100
      8 CAX         3.1140    1.0630    6.0720 ca        1 34G     -0.063300
      9 CAG         3.6430    1.0890    7.3720 ca        1 34G     -0.181000
     10 CAZ         4.9990    1.3270    7.5730 ca        1 34G      0.103100
     11 OAT         5.6220    1.3670    8.8050 os        1 34G     -0.304900
     12 CAC         4.7750    1.1950    9.9340 c3        1 34G      0.110700
     13 CBB         5.8480    1.5510    6.4540 ca        1 34G      0.101100
     14 OAV         7.1750    1.7840    6.7570 os        1 34G     -0.305900
     15 CAE         8.0310    2.0320    5.6470 c3        1 34G      0.110700
     16 CAI         5.3170    1.5210    5.1680 ca        1 34G     -0.175000
     17 CBD         3.9510    1.2690    4.9740 ca        1 34G     -0.068300
     18 CBH         3.4270    1.2300    3.5600 c3        1 34G      0.225800
     19 CAP         4.0030   -0.0150    2.8590 c3        1 34G     -0.104400
     20 CBF         3.5290   -0.1240    1.4170 c3        1 34G     -0.053700
     21 CAO         4.0500   -1.4040    0.7780 c3        1 34G     -0.076400
     22 CBG         5.5800   -1.5830    0.8460 c3        1 34G      0.213800
     23 NAR         6.2860   -0.4190    0.3120 n7        1 34G     -0.799200
     24 CAK         7.6130   -0.7140   -0.1790 c3        1 34G      0.155800
     25 CAL         7.6720   -1.8190   -1.2340 c3        1 34G     -0.071100
     26 CAW         6.9260   -3.0190   -0.7700 ca        1 34G     -0.073300
     27 CAF         7.2380   -4.2660   -1.3300 ca        1 34G     -0.178000
     28 CBC         5.9490   -2.9160    0.2260 ca        1 34G     -0.101300
     29 CAH         5.3280   -4.0800    0.7040 ca        1 34G     -0.174000
     30 CBA         5.6360   -5.3230    0.1590 ca        1 34G      0.102100
     31 OAU         5.0710   -6.5210    0.5500 os        1 34G     -0.303900
     32 CAD         4.1550   -6.4530    1.6370 c3        1 34G      0.110700
     33 CAY         6.5970   -5.4180   -0.8840 ca        1 34G      0.105100
     34 OAS         6.8220   -6.6900   -1.3700 os        1 34G     -0.303900
     35 CAB         7.7940   -6.7980   -2.4030 c3        1 34G      0.110700
     36 H1         -0.4120    1.0010    0.1410 hc        1 34G      0.034367
     37 H2         -0.4820   -0.7710    0.5120 hc        1 34G      0.034367
     38 H3         -0.3480   -0.2050   -1.2040 hc        1 34G      0.034367
     39 H4          1.9190    0.8390   -0.5990 hc        1 34G      0.040700
     40 H5          1.8400   -0.9680   -0.6030 hc        1 34G      0.040700
     41 H6          1.5940   -0.9990    1.8720 hc        1 34G      0.048700
     42 H7          0.3680    1.1430    2.1410 h1        1 34G      0.053200
     43 H8          1.8140    2.0800    1.5470 h1        1 34G      0.053200
     44 H10         1.4900   -0.5960    4.2820 h1        1 34G      0.031200
     45 H11         0.1730    0.6580    4.3230 h1        1 34G      0.031200
     46 H12         1.2950    0.0260    6.5610 hc        1 34G      0.054200
     47 H13         1.1190    1.7930    6.1970 hc        1 34G      0.054200
     48 H14         2.9700    0.9220    8.2250 ha        1 34G      0.138000
     49 H15         4.2960    0.1860    9.9200 h1        1 34G      0.042700
     50 H16         3.9970    1.9960    9.9730 h1        1 34G      0.042700
     51 H17         5.4780    1.2860   10.8010 h1        1 34G      0.042700
     52 H18         7.7030    2.9420    5.0890 h1        1 34G      0.043367
     53 H19         9.0300    2.1990    6.1250 h1        1 34G      0.043367
     54 H20         8.0630    1.1470    4.9670 h1        1 34G      0.043367
     55 H21         5.9600    1.6950    4.2930 ha        1 34G      0.144000
     56 H22         3.8240    2.1440    3.0180 h1        1 34G      0.068700
     57 H23         3.7100   -0.9380    3.4240 hc        1 34G      0.054700
     58 H24         5.1210    0.0630    2.8830 hc        1 34G      0.054700
     59 H25         3.9180    0.7640    0.8460 hc        1 34G      0.056700
     60 H26         3.5700   -2.2780    1.2910 hc        1 34G      0.046700
     61 H27         3.7420   -1.4350   -0.3000 hc        1 34G      0.046700
     62 H28         5.8850   -1.6490    1.9370 h1        1 34G      0.070700
     63 H29         5.7410   -0.0040   -0.4240 hn        1 34G      0.351800
     64 H31         8.2450   -1.0180    0.7020 h1        1 34G      0.055200
     65 H32         8.0450    0.2330   -0.6060 h1        1 34G      0.055200
     66 H33         7.2310   -1.4550   -2.2010 hc        1 34G      0.053200
     67 H34         8.7440   -2.0800   -1.4340 hc        1 34G      0.053200
     68 H35         8.0010   -4.3200   -2.1200 ha        1 34G      0.139000
     69 H36         4.6010   -4.0070    1.5260 ha        1 34G      0.141000
     70 H37         3.2670   -5.8310    1.3680 h1        1 34G      0.043700
     71 H38         3.8570   -7.5210    1.7880 h1        1 34G      0.043700
     72 H39         4.6530   -6.0500    2.5520 h1        1 34G      0.043700
     73 H40         8.7960   -6.4620   -2.0420 h1        1 34G      0.043700
     74 H41         7.8040   -7.8930   -2.6340 h1        1 34G      0.043700
     75 H42         7.4840   -6.2090   -3.3010 h1        1 34G      0.043700
@<TRIPOS>BOND
     1    1    2 1   
     2    1   36 1   
     3    1   37 1   
     4    1   38 1   
     5    2    3 1   
     6    2   39 1   
     7    2   40 1   
     8    3    4 1   
     9    3   20 1   
    10    3   41 1   
    11    4    5 1   
    12    4   42 1   
    13    4   43 1   
    14    5    6 1   
    15    5   18 1   
    16    6    7 1   
    17    6   44 1   
    18    6   45 1   
    19    7    8 1   
    20    7   46 1   
    21    7   47 1   
    22    8    9 ar  
    23    8   17 ar  
    24    9   10 ar  
    25    9   48 1   
    26   10   11 1   
    27   10   13 ar  
    28   11   12 1   
    29   12   49 1   
    30   12   50 1   
    31   12   51 1   
    32   13   14 1   
    33   13   16 ar  
    34   14   15 1   
    35   15   52 1   
    36   15   53 1   
    37   15   54 1   
    38   16   17 ar  
    39   16   55 1   
    40   17   18 1   
    41   18   19 1   
    42   18   56 1   
    43   19   20 1   
    44   19   57 1   
    45   19   58 1   
    46   20   21 1   
    47   20   59 1   
    48   21   22 1   
    49   21   60 1   
    50   21   61 1   
    51   22   23 1   
    52   22   28 1   
    53   22   62 1   
    54   23   24 1   
    55   23   63 1   
    56   24   25 1   
    57   24   64 1   
    58   24   65 1   
    59   25   26 1   
    60   25   66 1   
    61   25   67 1   
    62   26   27 ar  
    63   26   28 ar  
    64   27   33 ar  
    65   27   68 1   
    66   28   29 ar  
    67   29   30 ar  
    68   29   69 1   
    69   30   31 1   
    70   30   33 ar  
    71   31   32 1   
    72   32   70 1   
    73   32   71 1   
    74   32   72 1   
    75   33   34 1   
    76   34   35 1   
    77   35   73 1   
    78   35   74 1   
    79   35   75 1   
@<TRIPOS>SUBSTRUCTURE
     1 34G         1 TEMP              0 ****  ****    0 ROOT
