@<TRIPOS>MOLECULE
34H
   22    22     1     0     0
SMALL
bcc


@<TRIPOS>ATOM
      1 O4         -1.6200   -1.8120    0.2660 oh        1 34H     -0.655800
      2 C9          1.3540    1.5460    0.2490 ca        1 34H     -0.100000
      3 C8          2.7330    1.4910    0.0600 ca        1 34H     -0.191500
      4 C7          3.3610    0.2400    0.0050 ca        1 34H      0.088100
      5 C6          2.6190   -0.9420    0.1330 ca        1 34H     -0.191500
      6 C5          1.2420   -0.8650    0.3210 ca        1 34H     -0.100000
      7 C4          0.5950    0.3760    0.3850 ca        1 34H     -0.071300
      8 C3         -0.8720    0.4570    0.6200 c3        1 34H     -0.052100
      9 C2         -1.6990   -0.4910   -0.2460 c3        1 34H      0.015100
     10 C1         -3.1690    0.0100   -0.3040 c         1 34H      0.893600
     11 O2         -3.3970    1.1370   -0.8170 o         1 34H     -0.832300
     12 O1         -4.0460   -0.7640    0.1780 o         1 34H     -0.832300
     13 H8          3.3300    2.4060   -0.0480 ha        1 34H      0.125000
     14 H6          3.1190   -1.9180    0.0800 ha        1 34H      0.125000
     15 H5          0.6370   -1.7840    0.4110 ha        1 34H      0.151000
     16 HO3         5.0120   -0.6860   -0.2320 ho        1 34H      0.405000
     17 H31        -1.2390    1.5000    0.4150 hc        1 34H      0.060700
     18 H32        -1.0730    0.2230    1.7000 hc        1 34H      0.060700
     19 H4         -2.4990   -2.0340    0.6160 ho        1 34H      0.428000
     20 H2         -1.2780   -0.5310   -1.2860 h1        1 34H      0.042700
     21 O3          4.7320    0.2370   -0.1770 oh        1 34H     -0.517100
     22 H9          0.8520    2.5250    0.2850 ha        1 34H      0.151000
@<TRIPOS>BOND
     1    1    9 1   
     2    1   19 1   
     3    2    3 ar  
     4    2    7 ar  
     5    2   22 1   
     6    3    4 ar  
     7    3   13 1   
     8    4    5 ar  
     9    4   21 1   
    10    5    6 ar  
    11    5   14 1   
    12    6    7 ar  
    13    6   15 1   
    14    7    8 1   
    15    8    9 1   
    16    8   17 1   
    17    8   18 1   
    18    9   10 1   
    19    9   20 1   
    20   10   11 1   
    21   10   12 1   
    22   16   21 1   
@<TRIPOS>SUBSTRUCTURE
     1 34H         1 TEMP              0 ****  ****    0 ROOT
