@<TRIPOS>MOLECULE
34H
   22    20     1     0     0
SMALL
bcc


@<TRIPOS>ATOM
      1 O4         -0.4820    0.4740    0.3390 oh        1 34H     -0.873000
      2 C9          0.7450   -1.1650   -2.6320 ce        1 34H     -0.122000
      3 C8          1.4550   -1.2980   -3.7710 c2        1 34H     -0.182200
      4 C7          0.9800   -0.7300   -5.1060 c3        1 34H      0.200500
      5 C6         -0.5380   -0.7290   -5.1050 c2        1 34H     -0.262300
      6 C5         -1.0000   -0.3750   -3.9160 c1        1 34H     -0.068800
      7 C4         -0.4740   -0.3230   -2.6980 ce        1 34H     -0.117100
      8 C3          4.8200   -1.6620    1.7440 c1        1 34H     -0.262500
      9 C2          3.7350   -1.2790    1.4090 cg        1 34H     -0.087200
     10 C1          2.4100   -0.8120    1.0000 c         1 34H      0.913800
     11 O2          2.0860    0.3910    1.2290 o         1 34H     -0.834300
     12 O1          1.6230   -1.6260    0.4280 o         1 34H     -0.834300
     13 H8          2.4380   -1.7840   -3.8050 ha        1 34H      0.146000
     14 H6          1.4110    0.3060   -5.2260 h1        1 34H      0.039700
     15 H5         -1.0910   -1.1470   -5.9460 ha        1 34H      0.134000
     16 HO3         1.0470   -1.2850   -6.9530 ho        1 34H      0.392000
     17 H31        -0.7570    0.2880   -1.8290 ha        1 34H      0.204000
     18 H32         5.7760   -2.0000    2.0400 ha        1 34H      0.130500
     19 H4         -0.0570   -0.3940    0.3800 ho        1 34H      0.428500
     20 H2          0.2160    1.0610    0.6520 ho        1 34H      0.428500
     21 O3          1.4910   -1.5580   -6.1420 oh        1 34H     -0.591800
     22 H9          1.0780   -1.5230   -1.6390 ha        1 34H      0.218000
@<TRIPOS>BOND
     1    1   19 1   
     2    1   20 1   
     3    2    3 2   
     4    2    7 1   
     5    2   22 1   
     6    3    4 1   
     7    3   13 1   
     8    4    5 1   
     9    4   14 1   
    10    4   21 1   
    11    5    6 2   
    12    5   15 1   
    13    6    7 2   
    14    7   17 1   
    15    8    9 3   
    16    8   18 1   
    17    9   10 1   
    18   10   11 1   
    19   10   12 1   
    20   16   21 1   
@<TRIPOS>SUBSTRUCTURE
     1 34H         1 TEMP              0 ****  ****    0 ROOT
