@<TRIPOS>MOLECULE
34H
   22    20     1     0     0
SMALL
bcc


@<TRIPOS>ATOM
      1 O4          2.4520    3.0670    0.4290 oh        1 34H     -0.465000
      2 C9          0.8950   -1.3920   -2.5930 c2        1 34H      0.051000
      3 C8          0.7700   -0.3190   -3.5330 c2        1 34H     -0.220000
      4 C7          0.2610   -0.5710   -4.7730 c2        1 34H      0.039000
      5 C6         -0.1710   -1.9370   -5.1820 c3        1 34H     -0.205000
      6 C5         -0.0200   -2.9970   -4.1810 c1        1 34H     -0.151000
      7 C4          0.5090   -2.6710   -2.9270 c2        1 34H     -0.292000
      8 C3          2.8450   -2.7520    1.3860 c1        1 34H     -0.314000
      9 C2          2.7440   -1.5810    1.1510 c1        1 34H     -0.130000
     10 C1          2.6220   -0.1500    0.8660 c2        1 34H      0.416000
     11 O2          3.0810    0.6830    1.6980 o         1 34H     -0.566500
     12 O1          2.0560    0.2080   -0.2130 o         1 34H     -0.566500
     13 H8          1.0890    0.6890   -3.2260 ha        1 34H      0.173000
     14 H6         -1.2600   -1.9120   -5.4750 hc        1 34H      0.138000
     15 H5          0.4140   -2.2570   -6.0920 hc        1 34H      0.138000
     16 HO3        -0.2280    0.1150   -6.4820 ho        1 34H      0.206000
     17 H31         0.6160   -3.4800   -2.1860 ha        1 34H      0.142000
     18 H32         2.9330   -3.7840    1.5920 ha        1 34H      0.190000
     19 H4          2.1710    2.2790   -0.0540 ho        1 34H      0.223000
     20 H2          2.8680    2.6890    1.2120 ho        1 34H      0.223000
     21 O3          0.1480    0.4690   -5.6640 oh        1 34H     -0.250000
     22 H9          1.3170   -1.1340   -1.5920 ha        1 34H      0.220000
@<TRIPOS>BOND
     1    1   19 1   
     2    1   20 1   
     3    2    3 1   
     4    2    7 1   
     5    2   22 1   
     6    3    4 1   
     7    3   13 1   
     8    4    5 1   
     9    4   21 1   
    10    5    6 1   
    11    5   14 1   
    12    5   15 1   
    13    6    7 1   
    14    7   17 1   
    15    8    9 1   
    16    8   18 1   
    17    9   10 1   
    18   10   11 1   
    19   10   12 1   
    20   16   21 1   
@<TRIPOS>SUBSTRUCTURE
     1 34H         1 TEMP              0 ****  ****    0 ROOT
