@<TRIPOS>MOLECULE
34H
   22    18     1     0     0
SMALL
bcc


@<TRIPOS>ATOM
      1 O4         -1.1420    0.6080    2.4480 oh        1 34H     -0.371000
      2 C9          0.9150    0.2750   -1.1330 c1        1 34H     -0.088000
      3 C8          0.5330    0.2280   -2.4640 c1        1 34H     -0.215000
      4 C7         -0.5840   -0.4940   -2.8330 c1        1 34H      0.044000
      5 C6         -1.3190   -1.1660   -1.8800 c1        1 34H     -0.144500
      6 C5         -0.9400   -1.1190   -0.5550 c1        1 34H     -0.144500
      7 C4          0.1800   -0.3970   -0.1810 c1        1 34H     -0.075000
      8 O3         -0.9400   -0.6130   -4.2300 oh        1 34H     -0.274000
      9 C3          0.6890   -0.4680    1.2960 c2        1 34H     -0.132000
     10 C2          0.2210    0.7770    2.0540 c3        1 34H     -0.043000
     11 C1          1.0550    0.9680    3.2460 c2        1 34H      0.313000
     12 O2          0.8910    0.2460    4.2360 o         1 34H     -0.570000
     13 O1          1.8760    1.8670    3.2760 o         1 34H     -0.570000
     14 H9          1.7150    0.7420   -0.8790 ha        1 34H      0.211000
     15 H8          1.0410    0.6920   -3.1250 ha        1 34H      0.122000
     16 H6         -2.1320   -1.6900   -2.1500 ha        1 34H      0.125000
     17 H5         -1.4050   -1.7000    0.1180 ha        1 34H      0.125000
     18 HO3        -1.4490    0.0830   -4.4670 ho        1 34H      0.205000
     19 H31         0.3120   -1.2960    1.7430 ha        1 34H      0.086500
     20 H32         1.6490   -0.5080    1.3050 ha        1 34H      0.086500
     21 H4         -1.4660    1.3810    2.7180 ho        1 34H      0.223000
     22 H2          0.2990    1.5820    1.4600 h1        1 34H      0.086000
@<TRIPOS>BOND
     1    1   10 1   
     2    1   21 1   
     3    2    7 1   
     4    2   14 1   
     5    3    4 1   
     6    3   15 1   
     7    4    8 1   
     8    5    6 1   
     9    5   16 1   
    10    6   17 1   
    11    8   18 1   
    12    9   10 1   
    13    9   19 1   
    14    9   20 1   
    15   10   11 1   
    16   10   22 1   
    17   11   12 1   
    18   11   13 1   
@<TRIPOS>SUBSTRUCTURE
     1 34H         1 TEMP              0 ****  ****    0 ROOT
