@<TRIPOS>MOLECULE
34I
   41    44     1     0     0
SMALL
bcc


@<TRIPOS>ATOM
      1 C1         -2.9840    0.0650    1.6910 ca        1 34I     -0.163000
      2 C2         -3.6300   -0.2320    0.4720 ca        1 34I      0.074600
      3 C3         -5.0420   -0.1070    0.4010 ca        1 34I     -0.118300
      4 C4         -5.7620    0.2760    1.5320 ca        1 34I     -0.098000
      5 C5         -5.1130    0.5430    2.7350 ca        1 34I     -0.149000
      6 C6         -3.7260    0.4410    2.8060 ca        1 34I     -0.099000
      7 C7         -5.7440   -0.3960   -0.8770 c3        1 34I     -0.032100
      8 C8         -4.8850   -0.0380   -2.0680 c3        1 34I     -0.144400
      9 C9         -3.4760   -0.5710   -1.9470 c         1 34I      0.712500
     10 N10        -2.9100   -0.6670   -0.6630 n         1 34I     -0.366000
     11 C11        -1.5410   -1.0820   -0.5320 c3        1 34I      0.034000
     12 C12        -0.5130    0.0600   -0.5120 c         1 34I      0.628100
     13 O13        -0.7850    1.2570   -0.7160 o         1 34I     -0.578100
     14 N14         0.8020   -0.3230   -0.2610 n         1 34I     -0.435100
     15 C15         1.8450    0.5830   -0.2110 cc        1 34I      0.068500
     16 S16         1.6510    2.2500   -0.4820 ss        1 34I      0.206200
     17 C17         3.2470    2.5880   -0.2500 cc        1 34I     -0.205100
     18 C18         3.9970    1.4620    0.0400 cd        1 34I     -0.018000
     19 C19         3.1900    0.2740    0.0590 cd        1 34I     -0.208500
     20 C20         3.6870   -1.0540    0.3320 cd        1 34I      0.499000
     21 N21         5.0220   -1.4690    0.1220 na        1 34I     -0.140400
     22 N22         5.1750   -2.7460    0.4630 nd        1 34I     -0.514800
     23 C23         3.9370   -3.1470    0.8820 cc        1 34I      0.506900
     24 N24         2.9860   -2.1230    0.8150 nc        1 34I     -0.720000
     25 C25         5.3810    1.4970    0.3080 ch        1 34I      0.250800
     26 O26        -2.8210   -0.9310   -2.9400 o         1 34I     -0.620500
     27 N27         6.5220    1.5580    0.5330 n1        1 34I     -0.363800
     28 H1         -1.8870    0.0220    1.7700 ha        1 34I      0.136000
     29 H4         -6.8570    0.3670    1.4660 ha        1 34I      0.136000
     30 H5         -5.6930    0.8390    3.6210 ha        1 34I      0.138000
     31 H6         -3.2050    0.6640    3.7500 ha        1 34I      0.138000
     32 H7         -6.0050   -1.4900   -0.9110 hc        1 34I      0.061700
     33 H7A        -6.7080    0.1770   -0.9330 hc        1 34I      0.061700
     34 H8         -5.3320   -0.4500   -3.0110 hc        1 34I      0.086200
     35 H8A        -4.8100    1.0770   -2.1780 hc        1 34I      0.086200
     36 H11        -1.4310   -1.6850    0.4160 h1        1 34I      0.098700
     37 H11A       -1.2860   -1.7400   -1.4180 h1        1 34I      0.098700
     38 HN14        1.0080   -1.2850   -0.0920 hn        1 34I      0.358500
     39 H17         3.6570    3.5980   -0.3150 h4        1 34I      0.188000
     40 H23         3.7040   -4.1540    1.2400 h5        1 34I      0.071100
     41 HN21        5.7870   -0.9350   -0.2230 hn        1 34I      0.337700
@<TRIPOS>BOND
     1    1    2 ar  
     2    1    6 ar  
     3    1   28 1   
     4    2    3 ar  
     5    2   10 1   
     6    3    4 ar  
     7    3    7 1   
     8    4    5 ar  
     9    4   29 1   
    10    5    6 ar  
    11    5   30 1   
    12    6   31 1   
    13    7    8 1   
    14    7   32 1   
    15    7   33 1   
    16    8    9 1   
    17    8   34 1   
    18    8   35 1   
    19    9   10 1   
    20    9   26 2   
    21   10   11 1   
    22   11   12 1   
    23   11   36 1   
    24   11   37 1   
    25   12   13 2   
    26   12   14 1   
    27   14   15 1   
    28   14   38 1   
    29   15   16 1   
    30   15   19 2   
    31   16   17 1   
    32   17   18 2   
    33   17   39 1   
    34   18   19 1   
    35   18   25 1   
    36   19   20 1   
    37   20   21 1   
    38   20   24 2   
    39   21   22 1   
    40   21   41 1   
    41   22   23 2   
    42   23   24 1   
    43   23   40 1   
    44   25   27 3   
@<TRIPOS>SUBSTRUCTURE
     1 34I         1 TEMP              0 ****  ****    0 ROOT
