@<TRIPOS>MOLECULE
34I
   41    44     1     0     0
SMALL
bcc


@<TRIPOS>ATOM
      1 C1          0.0110   -0.0850   -0.1740 ca        1 34I     -0.166000
      2 C2          1.4170   -0.0270   -0.0780 ca        1 34I      0.074600
      3 C3          2.0100    0.0600    1.2090 ca        1 34I     -0.118300
      4 C4          1.2000    0.1090    2.3430 ca        1 34I     -0.097000
      5 C5         -0.1880    0.0710    2.2320 ca        1 34I     -0.149000
      6 C6         -0.7750   -0.0300    0.9730 ca        1 34I     -0.099000
      7 C7          3.4900    0.1080    1.3390 c3        1 34I     -0.032100
      8 C8          4.1640   -0.6810    0.2390 c3        1 34I     -0.144400
      9 C9          3.6030   -0.3640   -1.1280 c         1 34I      0.712500
     10 N10         2.2400   -0.0290   -1.2270 n         1 34I     -0.367000
     11 C11         1.6610    0.1690   -2.5260 c3        1 34I      0.034000
     12 C12         1.0180   -1.0810   -3.1460 c         1 34I      0.627100
     13 O13         1.1840   -2.2400   -2.7240 o         1 34I     -0.578100
     14 N14         0.2150   -0.8550   -4.2620 ns        1 34I     -0.436100
     15 C15        -0.3760   -1.8840   -4.9720 cc        1 34I      0.066500
     16 S16        -0.1990   -3.5250   -4.5590 ss        1 34I      0.208200
     17 C17        -1.1380   -4.0550   -5.8050 cc        1 34I     -0.206100
     18 C18        -1.6280   -3.0220   -6.5850 cd        1 34I     -0.018000
     19 C19        -1.1990   -1.7390   -6.1030 cd        1 34I     -0.206500
     20 C20        -1.5550   -0.4720   -6.6970 cd        1 34I      0.500000
     21 N21        -2.6960   -0.2560   -7.5050 na        1 34I     -0.141400
     22 N22        -2.7560    1.0130   -7.9020 nd        1 34I     -0.515800
     23 C23        -1.6600    1.6070   -7.3410 cc        1 34I      0.507900
     24 N24        -0.8900    0.7170   -6.5850 nc        1 34I     -0.722000
     25 C25        -2.4300   -3.2270   -7.7270 ch        1 34I      0.250800
     26 O26         4.3110   -0.3810   -2.1490 o         1 34I     -0.617500
     27 N27        -3.0830   -3.4310   -8.6690 n1        1 34I     -0.364800
     28 H1         -0.4810   -0.1930   -1.1530 ha        1 34I      0.134000
     29 H4          1.6690    0.1780    3.3360 ha        1 34I      0.136000
     30 H5         -0.8150    0.1160    3.1340 ha        1 34I      0.138000
     31 H6         -1.8710   -0.0730    0.8780 ha        1 34I      0.137000
     32 H7          3.8240    1.1810    1.2970 hc        1 34I      0.062200
     33 H7A         3.8100   -0.3010    2.3340 hc        1 34I      0.062200
     34 H8          4.0280   -1.7830    0.4070 hc        1 34I      0.086700
     35 H8A         5.2650   -0.4660    0.2220 hc        1 34I      0.086700
     36 H11         2.4810    0.4940   -3.2360 h1        1 34I      0.099200
     37 H11A        0.8900    0.9900   -2.4580 h1        1 34I      0.099200
     38 HN14        0.1370    0.0710   -4.6270 hn        1 34I      0.360500
     39 H17        -1.3410   -5.1120   -5.9900 h4        1 34I      0.188000
     40 H23        -1.3980    2.6620   -7.4680 h5        1 34I      0.072100
     41 HN21       -3.3890   -0.9120   -7.7820 hn        1 34I      0.337700
@<TRIPOS>BOND
     1    1    2 ar  
     2    1    6 ar  
     3    1   28 1   
     4    2    3 ar  
     5    2   10 1   
     6    3    4 ar  
     7    3    7 1   
     8    4    5 ar  
     9    4   29 1   
    10    5    6 ar  
    11    5   30 1   
    12    6   31 1   
    13    7    8 1   
    14    7   32 1   
    15    7   33 1   
    16    8    9 1   
    17    8   34 1   
    18    8   35 1   
    19    9   10 1   
    20    9   26 2   
    21   10   11 1   
    22   11   12 1   
    23   11   36 1   
    24   11   37 1   
    25   12   13 2   
    26   12   14 1   
    27   14   15 1   
    28   14   38 1   
    29   15   16 1   
    30   15   19 2   
    31   16   17 1   
    32   17   18 2   
    33   17   39 1   
    34   18   19 1   
    35   18   25 1   
    36   19   20 1   
    37   20   21 1   
    38   20   24 2   
    39   21   22 1   
    40   21   41 1   
    41   22   23 2   
    42   23   24 1   
    43   23   40 1   
    44   25   27 3   
@<TRIPOS>SUBSTRUCTURE
     1 34I         1 TEMP              0 ****  ****    0 ROOT
