@<TRIPOS>MOLECULE
34I
   41    44     1     0     0
SMALL
bcc


@<TRIPOS>ATOM
      1 C1          0.0480   -0.1350   -0.0310 ca        1 34I     -0.163000
      2 C2          1.4570   -0.0600   -0.0260 ca        1 34I      0.074600
      3 C3          2.1310    0.0240    1.2200 ca        1 34I     -0.118300
      4 C4          1.3960    0.0570    2.4050 ca        1 34I     -0.098000
      5 C5          0.0040    0.0050    2.3840 ca        1 34I     -0.149000
      6 C6         -0.6620   -0.0950    1.1650 ca        1 34I     -0.099000
      7 C7          3.6150    0.0850    1.2530 c3        1 34I     -0.032100
      8 C8          4.2220   -0.6930    0.1080 c3        1 34I     -0.144400
      9 C9          3.5710   -0.3730   -1.2180 c         1 34I      0.711500
     10 N10         2.2040   -0.0430   -1.2250 n         1 34I     -0.366000
     11 C11         1.5440    0.1750   -2.4820 c3        1 34I      0.034000
     12 C12         0.8840   -1.0700   -3.0960 c         1 34I      0.628100
     13 O13         0.9790   -2.2210   -2.6320 o         1 34I     -0.578100
     14 N14         0.1510   -0.8460   -4.2590 n         1 34I     -0.435100
     15 C15        -0.5030   -1.8600   -4.9340 cc        1 34I      0.068500
     16 S16        -0.4620   -3.4880   -4.4450 ss        1 34I      0.205200
     17 C17        -1.4230   -4.0000   -5.6820 cc        1 34I     -0.205100
     18 C18        -1.8160   -2.9700   -6.5190 cd        1 34I     -0.018000
     19 C19        -1.2780   -1.7070   -6.0970 cd        1 34I     -0.208500
     20 C20        -1.5100   -0.4490   -6.7660 cd        1 34I      0.499000
     21 N21        -1.8390   -0.3180   -8.1360 na        1 34I     -0.140400
     22 N22        -1.9900    0.9640   -8.4610 nd        1 34I     -0.514800
     23 C23        -1.7500    1.6490   -7.3030 cc        1 34I      0.506900
     24 N24        -1.4480    0.8060   -6.2280 nc        1 34I     -0.720000
     25 C25        -2.6640   -3.1510   -7.6310 ch        1 34I      0.250800
     26 O26         4.2100   -0.3840   -2.2840 o         1 34I     -0.620500
     27 N27        -3.3720   -3.3290   -8.5370 n1        1 34I     -0.363800
     28 H1         -0.5050   -0.2460   -0.9760 ha        1 34I      0.136000
     29 H4          1.9280    0.1240    3.3660 ha        1 34I      0.136000
     30 H5         -0.5640    0.0370    3.3250 ha        1 34I      0.138000
     31 H6         -1.7620   -0.1510    1.1410 ha        1 34I      0.138000
     32 H7          4.0030   -0.3250    2.2240 hc        1 34I      0.061700
     33 H7A         3.9380    1.1620    1.1950 hc        1 34I      0.061700
     34 H8          5.3180   -0.4700    0.0200 hc        1 34I      0.086200
     35 H8A         4.1060   -1.7970    0.2780 hc        1 34I      0.086200
     36 H11         2.3150    0.5410   -3.2260 h1        1 34I      0.098700
     37 H11A        0.7570    0.9720   -2.3480 h1        1 34I      0.098700
     38 HN14        0.0760    0.0820   -4.6190 hn        1 34I      0.358500
     39 H17        -1.7170   -5.0440   -5.8160 h4        1 34I      0.188000
     40 H23        -1.7930    2.7390   -7.2130 h5        1 34I      0.071100
     41 HN21       -1.9600   -1.0360   -8.8120 hn        1 34I      0.337700
@<TRIPOS>BOND
     1    1    2 ar  
     2    1    6 ar  
     3    1   28 1   
     4    2    3 ar  
     5    2   10 1   
     6    3    4 ar  
     7    3    7 1   
     8    4    5 ar  
     9    4   29 1   
    10    5    6 ar  
    11    5   30 1   
    12    6   31 1   
    13    7    8 1   
    14    7   32 1   
    15    7   33 1   
    16    8    9 1   
    17    8   34 1   
    18    8   35 1   
    19    9   10 1   
    20    9   26 2   
    21   10   11 1   
    22   11   12 1   
    23   11   36 1   
    24   11   37 1   
    25   12   13 2   
    26   12   14 1   
    27   14   15 1   
    28   14   38 1   
    29   15   16 1   
    30   15   19 2   
    31   16   17 1   
    32   17   18 2   
    33   17   39 1   
    34   18   19 1   
    35   18   25 1   
    36   19   20 1   
    37   20   21 1   
    38   20   24 2   
    39   21   22 1   
    40   21   41 1   
    41   22   23 2   
    42   23   24 1   
    43   23   40 1   
    44   25   27 3   
@<TRIPOS>SUBSTRUCTURE
     1 34I         1 TEMP              0 ****  ****    0 ROOT
