@<TRIPOS>MOLECULE
34I
   41    37     1     0     0
SMALL
bcc


@<TRIPOS>ATOM
      1 C1         -1.4190   -1.0670    2.0170 c1        1 34I     -0.132000
      2 C2         -0.1060   -1.4020    2.2580 c1        1 34I      0.078000
      3 C3          0.4070   -1.4010    3.6340 c1        1 34I     -0.110000
      4 C4         -0.4300   -1.0650    4.6810 c2        1 34I     -0.099000
      5 C5         -1.7700   -0.7230    4.4310 c1        1 34I     -0.147000
      6 C6         -2.2710   -0.7230    3.1000 c1        1 34I     -0.132000
      7 C7          1.8690   -1.8950    3.8750 c2        1 34I     -0.122000
      8 C8          2.5530   -2.4850    2.7550 c3        1 34I     -0.168000
      9 C9          2.1880   -1.8170    1.4710 c2        1 34I      0.315000
     10 N10         0.8550   -1.6960    1.1520 n         1 34I     -0.281000
     11 C11         0.3680   -2.1320   -0.1520 c3        1 34I     -0.038000
     12 C12         0.9070   -1.1570   -1.2660 c2        1 34I      0.277000
     13 O13         1.9480   -1.4180   -1.8540 o         1 34I     -0.359000
     14 N14         0.0780   -0.0520   -1.7180 n         1 34I     -0.272000
     15 C15         0.4690    0.7140   -2.8260 c2        1 34I     -0.192000
     16 S16         1.7720    0.5530   -3.6170 ss        1 34I      0.730000
     17 C17         1.8290    1.7020   -4.6640 c1        1 34I     -0.471000
     18 C18         0.6310    2.5060   -4.5110 c1        1 34I     -0.014000
     19 C19        -0.2350    1.8900   -3.3520 c2        1 34I     -0.099000
     20 C20        -1.4390    2.4110   -2.8620 c2        1 34I      0.034000
     21 N21        -1.5610    3.3100   -1.8940 n2        1 34I     -0.173000
     22 N22        -2.8580    3.6100   -1.7670 n2        1 34I     -0.083000
     23 C23        -3.5290    2.8990   -2.6530 c1        1 34I     -0.159000
     24 N24        -2.6490    2.1530   -3.3360 n2        1 34I     -0.175000
     25 C25         0.2620    3.7190   -5.3440 c1        1 34I     -0.079000
     26 O26         3.0320   -1.6060    0.6350 o         1 34I     -0.355000
     27 N27        -0.0190    4.6430   -5.9760 n1        1 34I     -0.039000
     28 H1         -1.7700   -1.0670    1.0860 ha        1 34I      0.141000
     29 H4         -0.0970   -1.0650    5.5780 ha        1 34I      0.137000
     30 H5         -2.3680   -0.4820    5.1870 ha        1 34I      0.138000
     31 H6         -3.2200   -0.4810    2.9280 ha        1 34I      0.141000
     32 H7          2.4010   -1.1220    4.1830 ha        1 34I      0.106500
     33 H7A         1.8500   -2.5660    4.6080 ha        1 34I      0.106500
     34 H8          3.5030   -2.6560    2.8050 hc        1 34I      0.124500
     35 H8A         2.2310   -3.3820    2.7380 hc        1 34I      0.124500
     36 H11        -0.5930   -2.1220   -0.1560 h1        1 34I      0.140000
     37 H11A        0.6940   -3.0630   -0.3370 h1        1 34I      0.140000
     38 HN14       -0.7070    0.1010   -1.3290 hn        1 34I      0.286000
     39 H17         2.5550    1.8570   -5.3200 DU        1 34I      0.226333
     40 H23        -4.4880    2.9130   -2.7870 DU        1 34I      0.226333
     41 HN21       -0.8770    3.6620   -1.3990 DU        1 34I      0.226333
@<TRIPOS>BOND
     1    1    6 1   
     2    1   28 1   
     3    2    3 1   
     4    2   10 1   
     5    3    4 1   
     6    4    5 1   
     7    4   29 1   
     8    5   30 1   
     9    6   31 1   
    10    7    8 1   
    11    7   32 1   
    12    7   33 1   
    13    8    9 1   
    14    8   34 1   
    15    8   35 1   
    16    9   10 1   
    17    9   26 1   
    18   10   11 1   
    19   11   12 1   
    20   11   36 1   
    21   11   37 1   
    22   12   13 1   
    23   12   14 1   
    24   14   15 1   
    25   14   38 1   
    26   15   16 1   
    27   15   19 1   
    28   16   17 1   
    29   17   18 1   
    30   18   19 1   
    31   19   20 1   
    32   20   21 1   
    33   20   24 1   
    34   21   22 1   
    35   22   23 1   
    36   23   24 1   
    37   25   27 1   
@<TRIPOS>SUBSTRUCTURE
     1 34I         1 TEMP              0 ****  ****    0 ROOT
