@<TRIPOS>MOLECULE
34I
   42    45     1     0     0
SMALL
bcc


@<TRIPOS>ATOM
      1 C1         -0.2300   -0.3520    0.5330 ca        1 34I     -0.155000
      2 C2          1.0680   -0.1010    0.0480 ca        1 34I      0.018600
      3 C3          2.1100    0.1980    0.9590 ca        1 34I     -0.097300
      4 C4          1.8290    0.2580    2.3250 ca        1 34I     -0.094000
      5 C5          0.5390    0.0270    2.7970 ca        1 34I     -0.116000
      6 C6         -0.4840   -0.2800    1.9010 ca        1 34I     -0.096000
      7 C7          3.4840    0.4510    0.4530 c3        1 34I     -0.042100
      8 C8          3.7900   -0.3880   -0.7690 c3        1 34I     -0.138400
      9 C9          2.6740   -0.3710   -1.7800 c         1 34I      0.721500
     10 N10         1.3560   -0.1700   -1.3450 n         1 34I     -0.389000
     11 C11         0.3480    0.2090   -2.2880 c3        1 34I      0.041000
     12 C12        -0.3130   -0.9860   -2.9890 c         1 34I      0.543100
     13 O13        -1.4480   -1.3930   -2.8310 o         1 34I     -0.395100
     14 N14         0.5920   -1.6980   -3.9860 n4        1 34I     -0.488200
     15 C15        -0.0830   -2.5010   -4.9640 cc        1 34I     -0.132500
     16 S16        -0.1280   -4.1860   -4.9340 ss        1 34I      0.256200
     17 C17        -1.0200   -4.3000   -6.2980 cc        1 34I     -0.120100
     18 C18        -1.3390   -3.0580   -6.8450 cd        1 34I     -0.018000
     19 C19        -0.7930   -1.9890   -6.0690 cd        1 34I     -0.038500
     20 C20        -0.9490   -0.5790   -6.3380 cd        1 34I      0.428000
     21 N21        -1.4070   -0.0060   -7.5430 na        1 34I     -0.093400
     22 N22        -1.4430    1.3140   -7.4430 nd        1 34I     -0.463800
     23 C23        -1.0080    1.5930   -6.1720 cc        1 34I      0.527900
     24 N24        -0.6910    0.4410   -5.4570 nc        1 34I     -0.744000
     25 C25        -2.1200   -2.9060   -8.0080 ch        1 34I      0.213800
     26 O26         2.8620   -0.5770   -2.9990 o         1 34I     -0.691500
     27 N27        -2.7760   -2.8200   -8.9660 n1        1 34I     -0.284800
     28 H1         -1.0530   -0.6100   -0.1520 ha        1 34I      0.138000
     29 H4          2.6400    0.4940    3.0330 ha        1 34I      0.154000
     30 H5          0.3290    0.0840    3.8760 ha        1 34I      0.157000
     31 H6         -1.5040   -0.4710    2.2720 ha        1 34I      0.154000
     32 H7          3.5850    1.5440    0.2020 hc        1 34I      0.078700
     33 H7A         4.2440    0.2250    1.2490 hc        1 34I      0.078700
     34 H8          3.9660   -1.4590   -0.4770 hc        1 34I      0.100200
     35 H8A         4.7210   -0.0150   -1.2780 hc        1 34I      0.100200
     36 H11        -0.4910    0.7690   -1.7740 h1        1 34I      0.126700
     37 H11A        0.7900    0.8770   -3.0890 h1        1 34I      0.126700
     38 HN14        1.1610   -0.9700   -4.4630 hn        1 34I      0.481300
     39 H17        -1.3390   -5.2550   -6.7360 h4        1 34I      0.222000
     40 H23        -0.9240    2.6080   -5.7640 h5        1 34I      0.092100
     41 HN21       -1.6710   -0.4630   -8.3900 hn        1 34I      0.356700
     42 H142        1.2580   -2.2750   -3.4510 hn        1 34I      0.481300
@<TRIPOS>BOND
     1    1    2 ar  
     2    1    6 ar  
     3    1   28 1   
     4    2    3 ar  
     5    2   10 1   
     6    3    4 ar  
     7    3    7 1   
     8    4    5 ar  
     9    4   29 1   
    10    5    6 ar  
    11    5   30 1   
    12    6   31 1   
    13    7    8 1   
    14    7   32 1   
    15    7   33 1   
    16    8    9 1   
    17    8   34 1   
    18    8   35 1   
    19    9   10 1   
    20    9   26 2   
    21   10   11 1   
    22   11   12 1   
    23   11   36 1   
    24   11   37 1   
    25   12   13 2   
    26   12   14 1   
    27   14   15 1   
    28   14   38 1   
    29   14   42 1   
    30   15   16 1   
    31   15   19 2   
    32   16   17 1   
    33   17   18 2   
    34   17   39 1   
    35   18   19 1   
    36   18   25 1   
    37   19   20 1   
    38   20   21 1   
    39   20   24 2   
    40   21   22 1   
    41   21   41 1   
    42   22   23 2   
    43   23   24 1   
    44   23   40 1   
    45   25   27 3   
@<TRIPOS>SUBSTRUCTURE
     1 34I         1 TEMP              0 ****  ****    0 ROOT
