@<TRIPOS>MOLECULE
34J
   45    44     1     0     0
SMALL
bcc


@<TRIPOS>ATOM
      1 C10        -0.2200    0.6780   -0.8370 c2        1 34J     -0.169000
      2 C13         2.1880   -0.1460    1.7360 ca        1 34J      0.015000
      3 C15         4.1030   -0.0080    3.2180 ca        1 34J     -0.119000
      4 C20         2.1240   -1.5270    1.9590 ca        1 34J     -0.094000
      5 C21         0.8390    1.8490    0.9930 c2        1 34J     -0.497000
      6 C26        -2.2820   -2.2970   -1.7400 c1        1 34J     -0.172000
      7 C02        -2.0760   -4.4450   -2.9410 c2        1 34J      0.274000
      8 C03        -1.7640   -5.0740   -1.6530 c2        1 34J     -0.253000
      9 C04        -1.7130   -4.3700   -0.5050 c2        1 34J     -0.033000
     10 C05        -1.9600   -2.9140   -0.4660 c3        1 34J     -0.185000
     11 C06        -5.9300   -1.4300    0.7150 c1        1 34J     -0.227500
     12 C07        -5.0170   -1.2680   -0.0410 c1        1 34J     -0.227500
     13 N08        -2.2010    0.8540   -2.0710 n8        1 34J     -0.258000
     14 N09        -0.9080    0.3850   -2.0480 nu        1 34J     -0.171000
     15 N11         0.6040   -0.1680   -0.1830 n2        1 34J     -0.178000
     16 C12         1.2250    0.5150    0.8610 c2        1 34J     -0.037000
     17 C14         3.1890    0.6060    2.3690 ca        1 34J     -0.112000
     18 C16         4.0360   -1.3870    3.4480 ca        1 34J     -0.061000
     19 C18         3.0420   -2.1450    2.8130 ca        1 34J     -0.065000
     20 S22        -0.2710    2.2780   -0.1660 ss        1 34J      0.578000
     21 C23        -0.4940    0.4060   -4.8680 c1        1 34J      0.441000
     22 O24         0.0300   -0.6610   -4.7960 o         1 34J     -0.221000
     23 O25        -1.0140    1.4720   -4.9490 o         1 34J     -0.221000
     24 C27        -2.3230   -3.0290   -2.9090 c2        1 34J     -0.301000
     25 N28        -2.6320   -2.2790   -4.1450 no        1 34J      0.600000
     26 O29        -2.9500   -2.8720   -5.1500 o         1 34J     -0.399500
     27 O30        -2.5680   -1.0780   -4.1470 o         1 34J     -0.399500
     28 H151        4.8850    0.5920    3.7090 ha        1 34J      0.151000
     29 H201        1.3500   -2.1330    1.4610 ha        1 34J      0.157000
     30 H211        1.1990    2.5260    1.7640 h4        1 34J      0.178000
     31 H011       -1.9020   -6.1890   -3.9720 hn        1 34J      0.261000
     32 H012       -2.3220   -4.8410   -4.9370 hn        1 34J      0.261000
     33 H062       -6.7400   -1.5700    1.3840 ha        1 34J      0.227000
     34 H061       -2.7980   -2.6840    0.2610 hc        1 34J      0.180500
     35 H1         -4.2070   -1.1150   -0.7170 ha        1 34J      0.227000
     36 H2         -2.3370    1.2480   -2.9970 hn        1 34J      0.165500
     37 H091       -0.8550   -0.6130   -2.2560 hn        1 34J      0.195000
     38 H141        3.2570    1.6900    2.1880 ha        1 34J      0.145000
     39 Cl17        5.1630   -2.1070    4.4900 cl        1 34J      0.006000
     40 Cl19        2.9290   -3.8220    3.0630 cl        1 34J     -0.003000
     41 H261       -1.0430   -2.3850   -0.0570 hc        1 34J      0.180500
     42 N01        -2.0980   -5.2160   -4.0370 n8        1 34J     -0.294000
     43 H031       -1.5690   -6.1600   -1.6510 ha        1 34J      0.145000
     44 H082       -2.8560    0.0810   -1.9740 hn        1 34J      0.165500
     45 H041       -1.4760   -4.8690    0.4500 ha        1 34J      0.147000
@<TRIPOS>BOND
     1    1   14 1   
     2    1   15 1   
     3    1   20 1   
     4    2    4 1   
     5    2   16 1   
     6    2   17 1   
     7    3   17 1   
     8    3   18 1   
     9    3   28 1   
    10    4   19 1   
    11    4   29 1   
    12    5   16 1   
    13    5   20 1   
    14    5   30 1   
    15    6   10 1   
    16    6   24 1   
    17    7    8 1   
    18    7   24 1   
    19    7   42 1   
    20    8    9 1   
    21    8   43 1   
    22    9   10 1   
    23    9   45 1   
    24   10   34 1   
    25   10   41 1   
    26   11   12 1   
    27   11   33 1   
    28   12   35 1   
    29   13   14 1   
    30   13   36 1   
    31   13   44 1   
    32   14   37 1   
    33   15   16 1   
    34   17   38 1   
    35   18   19 1   
    36   18   39 1   
    37   19   40 1   
    38   21   22 1   
    39   21   23 1   
    40   24   25 1   
    41   25   26 1   
    42   25   27 1   
    43   31   42 1   
    44   32   42 1   
@<TRIPOS>SUBSTRUCTURE
     1 34J         1 TEMP              0 ****  ****    0 ROOT
