@<TRIPOS>MOLECULE
34J
   44    45     1     0     0
SMALL
bcc


@<TRIPOS>ATOM
      1 C10         0.7500    0.7240    0.6930 cc        1 34J      0.604300
      2 C13         4.1160   -0.0380    1.7790 ca        1 34J     -0.083500
      3 C15         6.0340   -0.4250    3.2140 ca        1 34J     -0.125000
      4 C20         4.9780    0.1750    0.6950 ca        1 34J     -0.089000
      5 C21         1.7550   -0.6470    2.4130 cc        1 34J     -0.304400
      6 C26        -5.9020   -5.6320   -2.8800 ca        1 34J     -0.034000
      7 C02        -4.3390   -3.7200   -2.7360 ca        1 34J      0.301600
      8 C03        -5.5080   -2.8690   -2.7290 ca        1 34J     -0.211000
      9 C04        -6.7700   -3.3890   -2.7920 ca        1 34J     -0.059000
     10 C05        -6.9800   -4.7840   -2.8680 ca        1 34J     -0.227000
     11 C06        -0.9250   -0.2350   -2.3300 c2        1 34J     -0.292000
     12 C07        -1.7680    0.3970   -1.4960 ce        1 34J     -0.047200
     13 N08        -1.4060    0.9230   -0.2150 nh        1 34J     -0.486800
     14 N09        -0.1670    1.5110   -0.0560 nh        1 34J     -0.538700
     15 N11         2.0950    0.8200    0.6110 nd        1 34J     -0.694000
     16 C12         2.6680    0.0390    1.6120 cd        1 34J      0.394800
     17 C14         4.6570   -0.3340    3.0390 ca        1 34J     -0.118000
     18 C16         6.8950   -0.2180    2.1310 ca        1 34J      0.011400
     19 C18         6.3620    0.0850    0.8700 ca        1 34J      0.014400
     20 S22         0.1900   -0.3380    1.9530 ss        1 34J     -0.010300
     21 C23        -3.2530    0.5620   -1.8700 c         1 34J      0.921800
     22 O24        -3.7500   -0.2880   -2.6630 o         1 34J     -0.822300
     23 O25        -3.8760    1.5400   -1.3830 o         1 34J     -0.822300
     24 C27        -4.5730   -5.1320   -2.8170 ca        1 34J     -0.331200
     25 N28        -3.4930   -6.1190   -2.8390 no        1 34J      0.331200
     26 O29        -2.3310   -5.7830   -2.7990 o         1 34J     -0.262500
     27 O30        -3.7720   -7.2940   -2.9010 o         1 34J     -0.262500
     28 H151        6.4480   -0.6590    4.2070 ha        1 34J      0.144000
     29 H201        4.5670    0.4160   -0.3000 ha        1 34J      0.174000
     30 H211        2.0230   -1.3200    3.2240 h4        1 34J      0.171000
     31 H011       -3.0550   -2.1370   -2.6160 hn        1 34J      0.475300
     32 H012       -2.2900   -3.6820   -2.6590 hn        1 34J      0.475300
     33 H041       -7.6410   -2.7150   -2.7840 ha        1 34J      0.131000
     34 H062       -8.0030   -5.1790   -2.9160 ha        1 34J      0.126000
     35 H061       -1.3150   -0.6740   -3.2570 ha        1 34J      0.113000
     36 H1          0.1500   -0.3590   -2.1580 ha        1 34J      0.113000
     37 H2         -2.0990    1.6220    0.0560 hn        1 34J      0.432800
     38 H091        0.2510    1.8000   -0.9360 hn        1 34J      0.391800
     39 H141        3.9890   -0.4890    3.8990 ha        1 34J      0.142000
     40 CL17        8.5720   -0.3370    2.3760 cl        1 34J     -0.089400
     41 CL19        7.3780    0.3450   -0.4670 cl        1 34J     -0.082400
     42 H261       -6.0550   -6.7230   -2.9390 ha        1 34J      0.148000
     43 N01        -3.1210   -3.1420   -2.6670 nh        1 34J     -0.834200
     44 H031       -5.3450   -1.7710   -2.6720 ha        1 34J      0.211000
@<TRIPOS>BOND
     1    1   14 1   
     2    1   15 2   
     3    1   20 1   
     4    2    4 ar  
     5    2   16 1   
     6    2   17 ar  
     7    3   17 ar  
     8    3   18 ar  
     9    3   28 1   
    10    4   19 ar  
    11    4   29 1   
    12    5   16 2   
    13    5   20 1   
    14    5   30 1   
    15    6   10 ar  
    16    6   24 ar  
    17    6   42 1   
    18    7    8 ar  
    19    7   24 ar  
    20    7   43 1   
    21    8    9 ar  
    22    8   44 1   
    23    9   10 ar  
    24    9   33 1   
    25   10   34 1   
    26   11   12 2   
    27   11   35 1   
    28   11   36 1   
    29   12   13 1   
    30   12   21 1   
    31   13   14 1   
    32   13   37 1   
    33   14   38 1   
    34   15   16 1   
    35   17   39 1   
    36   18   19 ar  
    37   18   40 1   
    38   19   41 1   
    39   21   22 1   
    40   21   23 1   
    41   24   25 1   
    42   25   26 1   
    43   25   27 1   
    44   31   43 1   
    45   32   43 1   
@<TRIPOS>SUBSTRUCTURE
     1 34J         1 TEMP              0 ****  ****    0 ROOT
