@<TRIPOS>MOLECULE
34K
   40    41     1     0     0
SMALL
bcc


@<TRIPOS>ATOM
      1 C15         0.4420    0.1490   -0.6220 cg        1 34K     -0.145000
      2 C17         0.2070    0.8930    2.8330 c1        1 34K      0.009200
      3 C20         2.1510    0.5880    1.3280 c3        1 34K      0.073900
      4 C21         1.2160    0.3500    0.2700 c1        1 34K     -0.161100
      5 C22        -0.0790   -0.3840   -2.9760 cd        1 34K     -0.305400
      6 C24        -6.0750   -0.0310   -5.7470 c         1 34K      0.853300
      7 C28        -8.0310   -3.5070   -3.0900 c3        1 34K     -0.037000
      8 C01        -9.0420   -3.2050   -2.0140 c2        1 34K     -0.166300
      9 C02        -8.6260   -2.2240   -1.2340 c1        1 34K      0.023200
     10 C03        -7.7050   -1.2590   -1.3540 ce        1 34K     -0.161200
     11 N04        -7.0350   -0.6050   -0.2220 no        1 34K      0.308100
     12 O05        -7.5800   -0.5990    0.8520 o         1 34K     -0.219500
     13 O06        -5.9710   -0.0650   -0.3830 o         1 34K     -0.219500
     14 C07        -7.2560   -1.1150   -2.7590 ce        1 34K     -0.075200
     15 C08        -6.7110    0.1610   -3.2850 c3        1 34K     -0.111500
     16 C09        -5.5910   -0.0730   -4.2650 ce        1 34K      0.316300
     17 N10        -4.3390   -0.3060   -4.0170 n2        1 34K     -0.470400
     18 C12        -2.4750   -0.3100   -2.6160 cd        1 34K      0.652300
     19 N13        -1.8440   -0.0320   -1.4530 nc        1 34K     -0.693000
     20 C14        -0.4650   -0.0880   -1.6690 cc        1 34K      0.464300
     21 C16        -1.0780    0.9250    3.0080 c2        1 34K     -0.192100
     22 C18         1.4960    0.8580    2.6430 c2        1 34K     -0.093600
     23 S23        -1.3990   -0.6080   -3.9610 ss        1 34K     -0.028300
     24 O25        -6.4220   -1.1370   -6.2400 o         1 34K     -0.798800
     25 O26        -6.1350    1.0950   -6.2900 o         1 34K     -0.798800
     26 C27        -7.3460   -2.2410   -3.5160 c2        1 34K     -0.129200
     27 Br1         2.6710    1.1640    4.0890 br        1 34K     -0.112700
     28 H171       -1.6580    0.0240    3.2620 ha        1 34K      0.147000
     29 H201        2.8280   -0.3100    1.4330 hc        1 34K      0.068200
     30 H211        2.8020    1.4700    1.0550 hc        1 34K      0.068200
     31 H221        0.9520   -0.4550   -3.3140 h4        1 34K      0.170000
     32 H281       -7.2580   -4.2610   -2.7830 hc        1 34K      0.085700
     33 H011       -8.5960   -3.9310   -3.9640 hc        1 34K      0.085700
     34 H021      -10.0270   -3.6770   -2.0200 ha        1 34K      0.155000
     35 H081       -7.5350    0.7040   -3.8310 hc        1 34K      0.073200
     36 H082       -6.3750    0.8370   -2.4530 hc        1 34K      0.073200
     37 H111       -4.4040   -0.1050   -1.9840 hn        1 34K      0.423800
     38 H161       -1.6640    1.8480    2.8820 ha        1 34K      0.147000
     39 H271       -6.9020   -2.2530   -4.5400 ha        1 34K      0.231000
     40 N11        -3.8620   -0.4760   -2.7570 nu        1 34K     -0.507000
@<TRIPOS>BOND
     1    1    4 3   
     2    1   20 1   
     3    2   21 2   
     4    2   22 2   
     5    3    4 1   
     6    3   22 1   
     7    3   29 1   
     8    3   30 1   
     9    5   20 2   
    10    5   23 1   
    11    5   31 1   
    12    6   16 1   
    13    6   24 1   
    14    6   25 1   
    15    7    8 1   
    16    7   26 1   
    17    7   32 1   
    18    7   33 1   
    19    8    9 2   
    20    8   34 1   
    21    9   10 2   
    22   10   11 1   
    23   10   14 1   
    24   11   12 1   
    25   11   13 1   
    26   14   15 1   
    27   14   26 2   
    28   15   16 1   
    29   15   35 1   
    30   15   36 1   
    31   16   17 2   
    32   17   40 1   
    33   18   19 2   
    34   18   23 1   
    35   18   40 1   
    36   19   20 1   
    37   21   28 1   
    38   21   38 1   
    39   22   27 1   
    40   26   39 1   
    41   37   40 1   
@<TRIPOS>SUBSTRUCTURE
     1 34K         1 TEMP              0 ****  ****    0 ROOT
