@<TRIPOS>MOLECULE
34K
   42    41     1     0     0
SMALL
bcc


@<TRIPOS>ATOM
      1 C15        -1.9690   -0.0370    0.5970 ce        1 34K     -0.204100
      2 C17        -3.1940   -0.1510    2.7230 c1        1 34K     -0.092100
      3 C20         0.1050   -1.1280    1.7440 c2        1 34K     -0.201100
      4 C21        -0.9160   -0.5860    1.1590 c1        1 34K      0.007200
      5 C22        -0.8130    0.1860   -1.6460 cd        1 34K     -0.253400
      6 C24        -8.6460   -1.1550    0.9650 c1        1 34K      0.896000
      7 C28        -5.0400   -4.1280   -4.5270 ca        1 34K     -0.135500
      8 C01        -5.6250   -5.0880   -3.6970 ca        1 34K     -0.070000
      9 C02        -6.2910   -4.6960   -2.5340 ca        1 34K     -0.135500
     10 C03        -6.3760   -3.3480   -2.1970 ca        1 34K     -0.076500
     11 N04        -3.0460    5.1700   -5.3690 n2        1 34K      0.188800
     12 O05        -3.8590    5.9230   -4.6780 oh        1 34K     -0.398500
     13 O06        -3.0110    4.0720   -4.9770 o         1 34K     -0.269300
     14 C07        -5.7840   -2.3760   -3.0250 ca        1 34K     -0.127800
     15 C08        -5.8900   -0.9890   -2.6460 ce        1 34K      0.040700
     16 C09        -5.3210    0.0210   -3.2840 c1        1 34K      0.160500
     17 N10        -4.9280    1.0120   -3.9400 n2        1 34K     -0.343100
     18 C12        -2.7150    1.1000   -2.7610 cd        1 34K      0.327300
     19 N13        -3.0450    0.8580   -1.4690 nc        1 34K     -0.592000
     20 C14        -1.9460    0.3300   -0.8180 cc        1 34K      0.441100
     21 C16        -3.2320    0.2510    1.3490 c3        1 34K      0.060900
     22 C18        -3.1960   -0.4760    3.8780 c1        1 34K     -0.052200
     23 S23        -1.1090    0.6890   -3.1810 ss        1 34K      0.123700
     24 O25        -7.8660   -1.2530    0.0660 o         1 34K     -0.447500
     25 O26        -9.4200   -1.0580    1.8570 o         1 34K     -0.447500
     26 C27        -5.1170   -2.7790   -4.1950 ca        1 34K     -0.076500
     27 BR1        -3.1990   -0.9450    5.5520 br        1 34K      0.016200
     28 H171       -4.0890   -0.2780    0.8400 hc        1 34K      0.078200
     29 H201        0.2450   -2.2200    1.7940 ha        1 34K      0.156500
     30 H211        0.8870   -0.5280    2.2380 ha        1 34K      0.156500
     31 H221        0.1410   -0.2130   -1.2900 h4        1 34K      0.217000
     32 H281       -4.5220   -4.4390   -5.4470 ha        1 34K      0.154000
     33 H011       -5.5630   -6.1560   -3.9620 ha        1 34K      0.155000
     34 H021       -6.7540   -5.4540   -1.8830 ha        1 34K      0.154000
     35 H081       -3.8350    6.8230   -5.0660 ho        1 34K      0.484000
     36 H082       -6.5240   -0.7510   -1.7600 ha        1 34K      0.207000
     37 H111       -3.9210    2.6290   -3.3880 hn        1 34K      0.478300
     38 H161       -3.4390    1.3600    1.2980 hc        1 34K      0.078200
     39 H271       -4.6670   -2.0240   -4.8580 ha        1 34K      0.143500
     40 H041       -6.9070   -3.0350   -1.2820 ha        1 34K      0.143500
     41 H112       -3.2260    1.7490   -4.6270 hn        1 34K      0.478300
     42 N11        -3.6810    1.6640   -3.7010 n4        1 34K     -0.423800
@<TRIPOS>BOND
     1    1    4 2   
     2    1   20 1   
     3    1   21 1   
     4    2   21 1   
     5    2   22 3   
     6    3    4 2   
     7    3   29 1   
     8    3   30 1   
     9    5   20 2   
    10    5   23 1   
    11    5   31 1   
    12    6   24 2   
    13    6   25 2   
    14    7    8 ar  
    15    7   26 ar  
    16    7   32 1   
    17    8    9 ar  
    18    8   33 1   
    19    9   10 ar  
    20    9   34 1   
    21   10   14 ar  
    22   10   40 1   
    23   11   12 1   
    24   11   13 2   
    25   12   35 1   
    26   14   15 1   
    27   14   26 ar  
    28   15   16 2   
    29   15   36 1   
    30   16   17 2   
    31   17   42 1   
    32   18   19 2   
    33   18   23 1   
    34   18   42 1   
    35   19   20 1   
    36   21   28 1   
    37   21   38 1   
    38   22   27 1   
    39   26   39 1   
    40   37   42 1   
    41   41   42 1   
@<TRIPOS>SUBSTRUCTURE
     1 34K         1 TEMP              0 ****  ****    0 ROOT
