@<TRIPOS>MOLECULE
34L
   27    30     1     0     0
SMALL
bcc


@<TRIPOS>ATOM
      1 C01        -0.0920   -0.1860    0.0810 ca        1 34L     -0.030100
      2 C02         1.3500   -0.1760   -0.0060 ca        1 34L      0.046400
      3 C03         2.1360    0.1310    1.1170 ca        1 34L     -0.035000
      4 C04         1.5350    0.4310    2.3340 ca        1 34L     -0.164000
      5 C05         0.1370    0.4220    2.4210 ca        1 34L      0.073600
      6 C06        -0.6900    0.1120    1.2890 ca        1 34L     -0.074800
      7 N07        -0.6790    0.6890    3.5310 ns        1 34L     -0.471100
      8 C08        -2.0380    0.5660    3.1680 c         1 34L      0.725700
      9 C09        -2.0940    0.1900    1.7140 cc        1 34L     -0.160400
     10 C10        -3.1470   -0.0410    0.9080 cf        1 34L      0.056800
     11 C11        -4.5490   -0.0090    1.1550 cd        1 34L     -0.246400
     12 C12        -6.5840    0.1830    2.0760 cd        1 34L      0.414400
     13 N13        -5.2280    0.2830    2.3480 na        1 34L     -0.275900
     14 C14        -5.5730   -0.2790    0.1960 cc        1 34L      0.351200
     15 N15        -6.8170   -0.1570    0.7770 nc        1 34L     -0.677000
     16 O16        -2.9530    0.7550    3.9850 o         1 34L     -0.642500
     17 N17         1.8460   -0.4940   -1.2860 nc        1 34L     -0.506100
     18 C18         0.8460   -0.7260   -2.1010 cd        1 34L      0.358100
     19 S19        -0.7460   -0.5890   -1.4290 ss        1 34L     -0.059100
     20 H1          3.2340    0.1330    1.0300 ha        1 34L      0.157000
     21 H2          2.1510    0.6700    3.2120 ha        1 34L      0.147000
     22 H3         -0.3500    0.9280    4.4290 hn        1 34L      0.346500
     23 H4         -2.9160   -0.3080   -0.1500 ha        1 34L      0.146000
     24 H5         -7.3580    0.3600    2.8320 h5        1 34L      0.068100
     25 H6         -4.8030    0.5160    3.2150 hn        1 34L      0.341700
     26 H7         -5.4450   -0.5460   -0.8530 h4        1 34L      0.045100
     27 H9          0.9990   -0.9930   -3.1520 h5        1 34L      0.064800
@<TRIPOS>BOND
     1    1    2 ar  
     2    1    6 ar  
     3    1   19 1   
     4    2    3 ar  
     5    2   17 1   
     6    3    4 ar  
     7    3   20 1   
     8    4    5 ar  
     9    4   21 1   
    10    5    6 ar  
    11    5    7 1   
    12    6    9 1   
    13    7    8 1   
    14    7   22 1   
    15    8    9 1   
    16    8   16 2   
    17    9   10 2   
    18   10   11 1   
    19   10   23 1   
    20   11   13 1   
    21   11   14 2   
    22   12   13 1   
    23   12   15 2   
    24   12   24 1   
    25   13   25 1   
    26   14   15 1   
    27   14   26 1   
    28   17   18 2   
    29   18   19 1   
    30   18   27 1   
@<TRIPOS>SUBSTRUCTURE
     1 34L         1 TEMP              0 ****  ****    0 ROOT
