@<TRIPOS>MOLECULE
34L
   27    30     1     0     0
SMALL
bcc


@<TRIPOS>ATOM
      1 C01        -0.0900   -0.2230    0.0930 ca        1 34L     -0.030100
      2 C02         1.3530   -0.2280    0.0140 ca        1 34L      0.046400
      3 C03         2.1370    0.0910    1.1340 ca        1 34L     -0.035000
      4 C04         1.5330    0.4190    2.3430 ca        1 34L     -0.164000
      5 C05         0.1350    0.4250    2.4230 ca        1 34L      0.073600
      6 C06        -0.6900    0.1030    1.2940 ca        1 34L     -0.074800
      7 N07        -0.6830    0.7210    3.5240 n         1 34L     -0.471100
      8 C08        -2.0420    0.6040    3.1580 c         1 34L      0.725700
      9 C09        -2.0950    0.2030    1.7110 cc        1 34L     -0.160400
     10 C10        -3.1460   -0.0340    0.9030 cf        1 34L      0.056800
     11 C11        -4.5500    0.0170    1.1440 cd        1 34L     -0.246400
     12 C12        -6.5860    0.2450    2.0510 cd        1 34L      0.414400
     13 N13        -5.2310    0.3370    2.3270 na        1 34L     -0.275900
     14 C14        -5.5720   -0.2610    0.1840 cc        1 34L      0.351200
     15 N15        -6.8170   -0.1170    0.7570 nc        1 34L     -0.677000
     16 O16        -2.9580    0.8180    3.9660 o         1 34L     -0.642500
     17 N17         1.8520   -0.5750   -1.2580 nc        1 34L     -0.506100
     18 C18         0.8530   -0.8120   -2.0740 cd        1 34L      0.358100
     19 S19        -0.7410   -0.6470   -1.4120 ss        1 34L     -0.059100
     20 H1          3.2360    0.0810    1.0530 ha        1 34L      0.157000
     21 H2          2.1470    0.6690    3.2200 ha        1 34L      0.147000
     22 H3         -0.3560    0.9730    4.4190 hn        1 34L      0.346500
     23 H4         -2.9130   -0.3220   -0.1480 ha        1 34L      0.146000
     24 H5         -7.3620    0.4440    2.7990 h5        1 34L      0.068100
     25 H6         -4.8080    0.5820    3.1920 hn        1 34L      0.341700
     26 H7         -5.4410   -0.5490   -0.8590 h4        1 34L      0.045100
     27 H9          1.0090   -1.1000   -3.1190 h5        1 34L      0.064800
@<TRIPOS>BOND
     1    1    2 ar  
     2    1    6 ar  
     3    1   19 1   
     4    2    3 ar  
     5    2   17 1   
     6    3    4 ar  
     7    3   20 1   
     8    4    5 ar  
     9    4   21 1   
    10    5    6 ar  
    11    5    7 1   
    12    6    9 1   
    13    7    8 1   
    14    7   22 1   
    15    8    9 1   
    16    8   16 2   
    17    9   10 2   
    18   10   11 1   
    19   10   23 1   
    20   11   13 1   
    21   11   14 2   
    22   12   13 1   
    23   12   15 2   
    24   12   24 1   
    25   13   25 1   
    26   14   15 1   
    27   14   26 1   
    28   17   18 2   
    29   18   19 1   
    30   18   27 1   
@<TRIPOS>SUBSTRUCTURE
     1 34L         1 TEMP              0 ****  ****    0 ROOT
