@<TRIPOS>MOLECULE
34M
   48    51     1     0     0
SMALL
bcc


@<TRIPOS>ATOM
      1 S1          1.0600    1.1870    0.1920 ss        1 34M     -0.158400
      2 C2         -0.0790    2.5520    0.1640 c3        1 34M     -0.066600
      3 C5         -1.3930    2.0070   -0.1980 cc        1 34M      0.501700
      4 N6         -2.2380    1.1740    0.4010 nd        1 34M     -0.667000
      5 C7         -3.3470    1.0960   -0.4990 cd        1 34M      0.600500
      6 N8         -3.1250    1.8830   -1.5910 nc        1 34M     -0.369300
      7 O9         -1.9520    2.4460   -1.4390 os        1 34M     -0.130100
      8 C10        -4.5310    0.2810   -0.2490 ca        1 34M     -0.174500
      9 C11        -5.5480    0.2040   -1.2160 ca        1 34M     -0.054500
     10 C13        -6.6790   -0.5670   -0.9880 ca        1 34M     -0.193500
     11 C15        -6.8020   -1.2750    0.2230 ca        1 34M      0.146100
     12 C16        -5.7940   -1.2040    1.1940 ca        1 34M     -0.193500
     13 C18        -4.6640   -0.4270    0.9530 ca        1 34M     -0.054500
     14 O20        -7.9610   -2.0100    0.3510 os        1 34M     -0.323900
     15 C21        -8.1190   -2.7330    1.5670 c3        1 34M      0.111700
     16 C25         2.5400    1.9790    0.3650 cc        1 34M      0.413800
     17 N26         3.7930    1.3400    0.3210 na        1 34M     -0.241800
     18 C27         4.7390    2.3710    0.5320 cc        1 34M      0.379800
     19 N28         4.0510    3.5450    0.6790 nd        1 34M     -0.339000
     20 N29         2.7620    3.3180    0.5840 nd        1 34M     -0.366000
     21 C30         6.2050    2.1740    0.5520 c3        1 34M     -0.120400
     22 C34         4.0460   -0.0390    0.1480 ca        1 34M     -0.060200
     23 C35         3.7700   -0.6640   -1.0890 ca        1 34M     -0.077500
     24 C37         4.0230   -2.0160   -1.2610 ca        1 34M     -0.178000
     25 C39         4.5610   -2.7670   -0.1980 ca        1 34M      0.143100
     26 C40         4.8400   -2.1580    1.0320 ca        1 34M     -0.178000
     27 C42         4.5810   -0.8010    1.2040 ca        1 34M     -0.077500
     28 O44         4.7770   -4.0980   -0.4790 os        1 34M     -0.319900
     29 C45         5.2920   -4.8940    0.5840 c3        1 34M      0.110700
     30 H2         -0.1280    3.0440    1.1700 h1        1 34M      0.121200
     31 H2A         0.2320    3.3290   -0.5830 h1        1 34M      0.121200
     32 H11        -5.4590    0.7550   -2.1660 ha        1 34M      0.155000
     33 H13        -7.4810   -0.6350   -1.7380 ha        1 34M      0.148500
     34 H16        -5.8810   -1.7530    2.1420 ha        1 34M      0.148500
     35 H18        -3.8770   -0.3780    1.7220 ha        1 34M      0.155000
     36 H21        -8.1370   -2.0360    2.4400 h1        1 34M      0.047033
     37 H21A       -9.1110   -3.2360    1.4420 h1        1 34M      0.047033
     38 H21B       -7.3050   -3.4890    1.6850 h1        1 34M      0.047033
     39 H30         6.5990    2.1670   -0.4960 hc        1 34M      0.063367
     40 H30A        6.6940    3.0090    1.1130 hc        1 34M      0.063367
     41 H30B        6.4670    1.2030    1.0420 hc        1 34M      0.063367
     42 H35         3.3470   -0.0830   -1.9250 ha        1 34M      0.152500
     43 H37         3.8080   -2.5130   -2.2190 ha        1 34M      0.153000
     44 H40         5.2580   -2.7360    1.8680 ha        1 34M      0.153000
     45 H42         4.7990   -0.3320    2.1770 ha        1 34M      0.152500
     46 H45         5.3660   -5.9140    0.1290 h1        1 34M      0.048700
     47 H45A        6.3000   -4.5270    0.8970 h1        1 34M      0.048700
     48 H45B        4.5870   -4.8970    1.4510 h1        1 34M      0.048700
@<TRIPOS>BOND
     1    1    2 1   
     2    1   16 1   
     3    2    3 1   
     4    2   30 1   
     5    2   31 1   
     6    3    4 2   
     7    3    7 1   
     8    4    5 1   
     9    5    6 2   
    10    5    8 1   
    11    6    7 1   
    12    8    9 ar  
    13    8   13 ar  
    14    9   10 ar  
    15    9   32 1   
    16   10   11 ar  
    17   10   33 1   
    18   11   12 ar  
    19   11   14 1   
    20   12   13 ar  
    21   12   34 1   
    22   13   35 1   
    23   14   15 1   
    24   15   36 1   
    25   15   37 1   
    26   15   38 1   
    27   16   17 1   
    28   16   20 2   
    29   17   18 1   
    30   17   22 1   
    31   18   19 2   
    32   18   21 1   
    33   19   20 1   
    34   21   39 1   
    35   21   40 1   
    36   21   41 1   
    37   22   23 ar  
    38   22   27 ar  
    39   23   24 ar  
    40   23   42 1   
    41   24   25 ar  
    42   24   43 1   
    43   25   26 ar  
    44   25   28 1   
    45   26   27 ar  
    46   26   44 1   
    47   27   45 1   
    48   28   29 1   
    49   29   46 1   
    50   29   47 1   
    51   29   48 1   
@<TRIPOS>SUBSTRUCTURE
     1 34M         1 TEMP              0 ****  ****    0 ROOT
