@<TRIPOS>MOLECULE
34M
   48    51     1     0     0
SMALL
bcc


@<TRIPOS>ATOM
      1 S1          0.2770   -0.3530   -0.3520 ss        1 34M     -0.158400
      2 C2          2.0430   -0.1570   -0.3890 c3        1 34M     -0.066600
      3 C5          2.5160   -0.2590    0.9970 cc        1 34M      0.501700
      4 N6          2.5350   -1.2440    1.8900 nd        1 34M     -0.667000
      5 C7          3.1640   -0.6620    3.0360 cd        1 34M      0.600500
      6 N8          3.4970    0.6360    2.7840 nc        1 34M     -0.369300
      7 O9          3.1170    0.9090    1.5600 os        1 34M     -0.130100
      8 C10         3.4010   -1.3890    4.2790 ca        1 34M     -0.174500
      9 C11         3.9610   -0.7250    5.3840 ca        1 34M     -0.054500
     10 C13         4.1910   -1.4050    6.5720 ca        1 34M     -0.193500
     11 C15         3.8590   -2.7710    6.6620 ca        1 34M      0.146100
     12 C16         3.3000   -3.4420    5.5670 ca        1 34M     -0.193500
     13 C18         3.0740   -2.7470    4.3810 ca        1 34M     -0.054500
     14 O20         4.1260   -3.3540    7.8830 os        1 34M     -0.323900
     15 C21         3.8070   -4.7360    8.0060 c3        1 34M      0.111700
     16 C25        -0.1440    0.0340   -1.9400 cc        1 34M      0.413800
     17 N26        -1.4680    0.1460   -2.4050 na        1 34M     -0.241800
     18 C27        -1.3480    0.4570   -3.7800 cc        1 34M      0.379800
     19 N28        -0.0130    0.5270   -4.0780 nd        1 34M     -0.339000
     20 N29         0.6940    0.2770   -3.0010 nd        1 34M     -0.366000
     21 C30        -2.4900    0.6870   -4.6920 c3        1 34M     -0.120400
     22 C34        -2.6560   -0.0520   -1.6670 ca        1 34M     -0.060200
     23 C35        -3.0200    0.8540   -0.6460 ca        1 34M     -0.077500
     24 C37        -4.1890    0.6620    0.0750 ca        1 34M     -0.178000
     25 C39        -5.0160   -0.4390   -0.2170 ca        1 34M      0.143100
     26 C40        -4.6670   -1.3420   -1.2280 ca        1 34M     -0.178000
     27 C42        -3.4910   -1.1510   -1.9470 ca        1 34M     -0.077500
     28 O44        -6.1540   -0.5300    0.5550 os        1 34M     -0.319900
     29 C45        -6.9980   -1.6500    0.3080 c3        1 34M      0.110700
     30 H2          2.3360    0.8360   -0.8210 h1        1 34M      0.121200
     31 H2A         2.5150   -0.9570   -1.0180 h1        1 34M      0.121200
     32 H11         4.2240    0.3430    5.3210 ha        1 34M      0.155000
     33 H13         4.6290   -0.8970    7.4420 ha        1 34M      0.148500
     34 H16         3.0380   -4.5070    5.6280 ha        1 34M      0.148500
     35 H18         2.6340   -3.2840    3.5250 ha        1 34M      0.155000
     36 H21         4.3960   -5.3430    7.2760 h1        1 34M      0.047033
     37 H21A        4.1090   -4.9780    9.0570 h1        1 34M      0.047033
     38 H21B        2.7120   -4.9010    7.8620 h1        1 34M      0.047033
     39 H30        -2.8480    1.7430   -4.5890 hc        1 34M      0.063367
     40 H30A       -3.3340   -0.0050   -4.4500 hc        1 34M      0.063367
     41 H30B       -2.1720    0.5180   -5.7520 hc        1 34M      0.063367
     42 H35        -2.3760    1.7170   -0.4110 ha        1 34M      0.152500
     43 H37        -4.4790    1.3600    0.8740 ha        1 34M      0.153000
     44 H40        -5.3050   -2.2060   -1.4610 ha        1 34M      0.153000
     45 H42        -3.2210   -1.8700   -2.7370 ha        1 34M      0.152500
     46 H45        -6.4500   -2.6060    0.4950 h1        1 34M      0.048700
     47 H45A       -7.3950   -1.6210   -0.7350 h1        1 34M      0.048700
     48 H45B       -7.8260   -1.5170    1.0500 h1        1 34M      0.048700
@<TRIPOS>BOND
     1    1    2 1   
     2    1   16 1   
     3    2    3 1   
     4    2   30 1   
     5    2   31 1   
     6    3    4 2   
     7    3    7 1   
     8    4    5 1   
     9    5    6 2   
    10    5    8 1   
    11    6    7 1   
    12    8    9 ar  
    13    8   13 ar  
    14    9   10 ar  
    15    9   32 1   
    16   10   11 ar  
    17   10   33 1   
    18   11   12 ar  
    19   11   14 1   
    20   12   13 ar  
    21   12   34 1   
    22   13   35 1   
    23   14   15 1   
    24   15   36 1   
    25   15   37 1   
    26   15   38 1   
    27   16   17 1   
    28   16   20 2   
    29   17   18 1   
    30   17   22 1   
    31   18   19 2   
    32   18   21 1   
    33   19   20 1   
    34   21   39 1   
    35   21   40 1   
    36   21   41 1   
    37   22   23 ar  
    38   22   27 ar  
    39   23   24 ar  
    40   23   42 1   
    41   24   25 ar  
    42   24   43 1   
    43   25   26 ar  
    44   25   28 1   
    45   26   27 ar  
    46   26   44 1   
    47   27   45 1   
    48   28   29 1   
    49   29   46 1   
    50   29   47 1   
    51   29   48 1   
@<TRIPOS>SUBSTRUCTURE
     1 34M         1 TEMP              0 ****  ****    0 ROOT
