@<TRIPOS>MOLECULE
34M
   48    44     1     0     0
SMALL
bcc


@<TRIPOS>ATOM
      1 S1         -0.5480   -1.0590   -1.4200 ss        1 34M      0.351000
      2 C2          1.2520   -0.9540   -1.4110 c3        1 34M     -0.233000
      3 C5          1.7450   -0.7600    0.0380 c2        1 34M      0.016000
      4 N6          3.0360   -0.6500    0.4330 n2        1 34M     -0.139000
      5 C7          3.0500   -0.4350    1.7790 c1        1 34M     -0.033000
      6 N8          1.7780   -0.4140    2.2080 n2        1 34M     -0.036000
      7 O9          0.9630   -0.6170    1.1240 os        1 34M     -0.074000
      8 C10         4.2900   -0.2410    2.6390 c1        1 34M     -0.041000
      9 C11         4.9380   -1.3400    3.1820 c2        1 34M     -0.066000
     10 C13         6.0960   -1.1620    3.9430 c1        1 34M     -0.210500
     11 C15         6.5940    0.1090    4.1530 c1        1 34M      0.100000
     12 C16         5.9440    1.2100    3.6080 c1        1 34M     -0.161000
     13 C18         4.7930    1.0350    2.8520 c1        1 34M     -0.066000
     14 O20         7.7530    0.2970    4.9820 os        1 34M     -0.205000
     15 C21         7.4510    0.4870    6.3640 c3        1 34M     -0.078500
     16 C25        -1.1430   -0.9680   -3.1000 c2        1 34M     -0.265000
     17 N26        -2.3740   -0.5780   -3.4770 n2        1 34M     -0.110000
     18 C27        -2.4940   -0.7990   -4.8000 c1        1 34M     -0.066000
     19 N28        -1.3400   -1.3230   -5.2360 n2        1 34M     -0.076000
     20 N29        -0.5050   -1.4270   -4.1820 n2        1 34M     -0.104000
     21 C30        -3.6920   -0.4540   -5.6540 c2        1 34M     -0.144000
     22 C34        -3.4450   -0.1110   -2.5710 c1        1 34M     -0.041000
     23 C35        -3.5240    1.2390   -2.2220 c2        1 34M     -0.066000
     24 C37        -4.5480    1.6850   -1.3920 c1        1 34M     -0.210500
     25 C39        -5.4970    0.7860   -0.9100 c1        1 34M      0.100000
     26 C40        -5.4190   -0.5610   -1.2580 c1        1 34M     -0.161000
     27 C42        -4.3910   -1.0090   -2.0900 c1        1 34M     -0.066000
     28 O44        -6.5150    1.2370    0.0030 os        1 34M     -0.205000
     29 C45        -7.7060    1.7190   -0.6430 c3        1 34M     -0.078500
     30 H2          1.6410   -1.8060   -1.7890 h1        1 34M      0.160500
     31 H2A         1.5440   -0.1760   -1.9720 h1        1 34M      0.160500
     32 H11         4.5940   -2.2180    3.0350 ha        1 34M      0.150500
     33 H13         6.5600   -1.9450    4.3310 ha        1 34M      0.144500
     34 H16         6.2860    2.0820    3.7530 ha        1 34M      0.157000
     35 H18         4.3430    1.8010    2.4730 ha        1 34M      0.157000
     36 H21         6.8860   -0.2610    6.6830 h1        1 34M      0.087500
     37 H21A        8.3080    0.5130    6.8950 h1        1 34M      0.087500
     38 H21B        6.9690    1.3320    6.4790 h1        1 34M      0.087500
     39 H30        -3.4260   -0.4420   -6.6110 ha        1 34M      0.102667
     40 H30A       -4.4010   -1.1330   -5.5170 ha        1 34M      0.102667
     41 H30B       -4.0260    0.4160   -5.4030 ha        1 34M      0.102667
     42 H35        -2.8530    1.8740   -2.5620 ha        1 34M      0.150500
     43 H37        -4.6020    2.6240   -1.1510 ha        1 34M      0.144500
     44 H40        -6.0860   -1.1960   -0.9180 ha        1 34M      0.157000
     45 H42        -4.3360   -1.9320   -2.3280 ha        1 34M      0.157000
     46 H45        -8.3440    2.0910    0.0540 h1        1 34M      0.087500
     47 H45A       -8.1280    1.0010   -1.1080 h1        1 34M      0.087500
     48 H45B       -7.4670    2.4330   -1.2870 h1        1 34M      0.087500
@<TRIPOS>BOND
     1    1    2 1   
     2    1   16 1   
     3    2    3 1   
     4    2   30 1   
     5    2   31 1   
     6    3    4 1   
     7    3    7 1   
     8    4    5 1   
     9    5    6 1   
    10    6    7 1   
    11    8    9 1   
    12    8   13 1   
    13    9   10 1   
    14    9   32 1   
    15   10   33 1   
    16   11   12 1   
    17   11   14 1   
    18   12   34 1   
    19   13   35 1   
    20   14   15 1   
    21   15   36 1   
    22   15   37 1   
    23   15   38 1   
    24   16   17 1   
    25   16   20 1   
    26   17   18 1   
    27   18   19 1   
    28   19   20 1   
    29   21   39 1   
    30   21   40 1   
    31   21   41 1   
    32   22   23 1   
    33   22   27 1   
    34   23   24 1   
    35   23   42 1   
    36   24   43 1   
    37   25   26 1   
    38   25   28 1   
    39   26   44 1   
    40   27   45 1   
    41   28   29 1   
    42   29   46 1   
    43   29   47 1   
    44   29   48 1   
@<TRIPOS>SUBSTRUCTURE
     1 34M         1 TEMP              0 ****  ****    0 ROOT
