@<TRIPOS>MOLECULE
34M
   48    51     1     0     0
SMALL
bcc


@<TRIPOS>ATOM
      1 S1          0.2750   -0.3530   -0.3500 ss        1 34M     -0.158400
      2 C2          2.0410   -0.1520   -0.3840 c3        1 34M     -0.066600
      3 C5          2.5110   -0.2540    1.0040 cc        1 34M      0.501700
      4 N6          2.5340   -1.2410    1.8950 nd        1 34M     -0.667000
      5 C7          3.1580   -0.6580    3.0430 cd        1 34M      0.600500
      6 N8          3.4840    0.6420    2.7940 nc        1 34M     -0.369300
      7 O9          3.1050    0.9160    1.5700 os        1 34M     -0.130100
      8 C10         3.3940   -1.3850    4.2850 ca        1 34M     -0.174500
      9 C11         3.9290   -0.7160    5.4000 ca        1 34M     -0.054500
     10 C13         4.1600   -1.3970    6.5860 ca        1 34M     -0.193500
     11 C15         3.8540   -2.7700    6.6670 ca        1 34M      0.146100
     12 C16         3.3210   -3.4460    5.5620 ca        1 34M     -0.193500
     13 C18         3.0940   -2.7500    4.3770 ca        1 34M     -0.054500
     14 O20         4.1210   -3.3530    7.8870 os        1 34M     -0.323900
     15 C21         3.8280   -4.7410    8.0010 c3        1 34M      0.111700
     16 C25        -0.1440    0.0350   -1.9380 cc        1 34M      0.413800
     17 N26        -1.4670    0.1470   -2.4060 na        1 34M     -0.241800
     18 C27        -1.3460    0.4590   -3.7800 cc        1 34M      0.379800
     19 N28        -0.0110    0.5310   -4.0750 nd        1 34M     -0.339000
     20 N29         0.6950    0.2800   -2.9980 nd        1 34M     -0.366000
     21 C30        -2.4870    0.6880   -4.6940 c3        1 34M     -0.120400
     22 C34        -2.6560   -0.0530   -1.6690 ca        1 34M     -0.060200
     23 C35        -3.0230    0.8530   -0.6480 ca        1 34M     -0.077500
     24 C37        -4.1920    0.6590    0.0700 ca        1 34M     -0.178000
     25 C39        -5.0190   -0.4430   -0.2230 ca        1 34M      0.143100
     26 C40        -4.6670   -1.3460   -1.2330 ca        1 34M     -0.178000
     27 C42        -3.4900   -1.1530   -1.9510 ca        1 34M     -0.077500
     28 O44        -6.1570   -0.5360    0.5480 os        1 34M     -0.319900
     29 C45        -7.0000   -1.6570    0.2990 c3        1 34M      0.110700
     30 H2          2.3320    0.8420   -0.8140 h1        1 34M      0.121200
     31 H2A         2.5160   -0.9500   -1.0130 h1        1 34M      0.121200
     32 H11         4.1710    0.3580    5.3440 ha        1 34M      0.155000
     33 H13         4.5780   -0.8840    7.4640 ha        1 34M      0.148500
     34 H16         3.0800   -4.5160    5.6160 ha        1 34M      0.148500
     35 H18         2.6740   -3.2920    3.5140 ha        1 34M      0.155000
     36 H21         4.4370   -5.3330    7.2740 h1        1 34M      0.047033
     37 H21A        4.1230   -4.9830    9.0530 h1        1 34M      0.047033
     38 H21B        2.7380   -4.9280    7.8430 h1        1 34M      0.047033
     39 H30        -2.8450    1.7440   -4.5900 hc        1 34M      0.063367
     40 H30A       -3.3310   -0.0040   -4.4520 hc        1 34M      0.063367
     41 H30B       -2.1670    0.5200   -5.7520 hc        1 34M      0.063367
     42 H35        -2.3800    1.7160   -0.4120 ha        1 34M      0.152500
     43 H37        -4.4860    1.3560    0.8700 ha        1 34M      0.153000
     44 H40        -5.3030   -2.2110   -1.4680 ha        1 34M      0.153000
     45 H42        -3.2180   -1.8720   -2.7410 ha        1 34M      0.152500
     46 H45        -6.4510   -2.6110    0.4860 h1        1 34M      0.048700
     47 H45A       -7.3950   -1.6270   -0.7460 h1        1 34M      0.048700
     48 H45B       -7.8290   -1.5250    1.0400 h1        1 34M      0.048700
@<TRIPOS>BOND
     1    1    2 1   
     2    1   16 1   
     3    2    3 1   
     4    2   30 1   
     5    2   31 1   
     6    3    4 2   
     7    3    7 1   
     8    4    5 1   
     9    5    6 2   
    10    5    8 1   
    11    6    7 1   
    12    8    9 ar  
    13    8   13 ar  
    14    9   10 ar  
    15    9   32 1   
    16   10   11 ar  
    17   10   33 1   
    18   11   12 ar  
    19   11   14 1   
    20   12   13 ar  
    21   12   34 1   
    22   13   35 1   
    23   14   15 1   
    24   15   36 1   
    25   15   37 1   
    26   15   38 1   
    27   16   17 1   
    28   16   20 2   
    29   17   18 1   
    30   17   22 1   
    31   18   19 2   
    32   18   21 1   
    33   19   20 1   
    34   21   39 1   
    35   21   40 1   
    36   21   41 1   
    37   22   23 ar  
    38   22   27 ar  
    39   23   24 ar  
    40   23   42 1   
    41   24   25 ar  
    42   24   43 1   
    43   25   26 ar  
    44   25   28 1   
    45   26   27 ar  
    46   26   44 1   
    47   27   45 1   
    48   28   29 1   
    49   29   46 1   
    50   29   47 1   
    51   29   48 1   
@<TRIPOS>SUBSTRUCTURE
     1 34M         1 TEMP              0 ****  ****    0 ROOT
