@<TRIPOS>MOLECULE
34N
   52    54     1     0     0
SMALL
bcc


@<TRIPOS>ATOM
      1 C5         -4.5870   -1.5390    0.0720 ca        1 34N     -0.389500
      2 C6         -4.5040   -0.7740    1.2430 ca        1 34N     -0.014500
      3 C7         -3.3560   -0.0520    1.5490 ca        1 34N     -0.154000
      4 C8         -2.2520   -0.0790    0.6850 ca        1 34N     -0.006300
      5 C10        -3.4760   -1.5680   -0.7800 ca        1 34N     -0.014500
      6 C15         3.7170    0.5000    0.4170 c         1 34N      0.666700
      7 C17         4.9270   -0.3110    0.0860 ca        1 34N     -0.119600
      8 C20         7.2420   -1.7400   -0.5420 ca        1 34N      0.004000
      9 C21         7.3390   -0.4230   -0.0700 ca        1 34N     -0.098500
     10 C22         6.1820    0.2890    0.2380 ca        1 34N     -0.098000
     11 C26        -1.2040    2.2820   -0.9230 ca        1 34N     -0.096000
     12 C28        -1.1980    4.6770   -0.6040 ca        1 34N      0.132900
     13 F29        -1.2530    5.9280   -1.1180 f         1 34N     -0.137900
     14 C27        -1.2590    3.5630   -1.4620 ca        1 34N     -0.161000
     15 C30        -1.0830    4.4930    0.7860 ca        1 34N     -0.161000
     16 C31        -1.0290    3.2030    1.3040 ca        1 34N     -0.096000
     17 C25        -1.0890    2.0880    0.4590 ca        1 34N     -0.099300
     18 C11        -1.0240    0.7070    1.0410 c3        1 34N      0.021900
     19 C9         -2.3230   -0.8490   -0.4830 ca        1 34N     -0.154000
     20 S2         -5.9620   -2.4290   -0.2780 sy        1 34N      1.398300
     21 O3         -5.6390   -3.4940   -1.1310 o         1 34N     -0.657300
     22 O4         -6.6550   -2.7300    0.9040 o         1 34N     -0.657300
     23 C1         -6.8420   -1.2750   -1.1510 c3        1 34N     -0.358300
     24 C12         0.2490   -0.0190    0.6140 c3        1 34N     -0.101400
     25 N14         2.6920   -0.1400    1.0860 n         1 34N     -0.567900
     26 O16         3.6580    1.7150    0.1430 o         1 34N     -0.592100
     27 C23         8.4200   -2.4710   -0.8560 cg        1 34N      0.226800
     28 N24         9.3840   -3.0700   -1.1130 n1        1 34N     -0.348800
     29 C19         5.9830   -2.3360   -0.7080 ca        1 34N     -0.098500
     30 C18         4.8300   -1.6210   -0.3930 ca        1 34N     -0.098000
     31 H6         -5.3630   -0.7610    1.9390 ha        1 34N      0.156000
     32 H7         -3.3150    0.5420    2.4740 ha        1 34N      0.143000
     33 H10        -3.5160   -2.1870   -1.6940 ha        1 34N      0.156000
     34 H13         1.5540    1.6150    1.2180 h1        1 34N      0.067200
     35 H13A        1.2530    0.3510    2.5070 h1        1 34N      0.067200
     36 H21         8.3260    0.0490    0.0530 ha        1 34N      0.151500
     37 H22         6.2440    1.3310    0.5920 ha        1 34N      0.152000
     38 H26        -1.2560    1.4090   -1.5930 ha        1 34N      0.137000
     39 H27        -1.3470    3.7140   -2.5470 ha        1 34N      0.152000
     40 H30        -1.0320    5.3680    1.4500 ha        1 34N      0.152000
     41 H31        -0.9360    3.0650    2.3920 ha        1 34N      0.137000
     42 H11        -1.0000    0.8000    2.1700 hc        1 34N      0.065700
     43 H9         -1.4640   -0.8920   -1.1700 ha        1 34N      0.143000
     44 H1         -6.3290   -0.9500   -2.0880 h1        1 34N      0.114367
     45 H1A        -7.8380   -1.6810   -1.4630 h1        1 34N      0.114367
     46 H1B        -7.0540   -0.3480   -0.5640 h1        1 34N      0.114367
     47 H12         0.4210    0.1300   -0.4840 hc        1 34N      0.053200
     48 H12A        0.1220   -1.1190    0.7950 hc        1 34N      0.053200
     49 HN14        2.7490   -1.1190    1.2350 hn        1 34N      0.310500
     50 H19         5.9070   -3.3660   -1.0890 ha        1 34N      0.151500
     51 H18         3.8480   -2.0940   -0.5440 ha        1 34N      0.152000
     52 C13         1.4510    0.5060    1.4050 c3        1 34N      0.087000
@<TRIPOS>BOND
     1    1    2 ar  
     2    1    5 ar  
     3    1   20 1   
     4    2    3 ar  
     5    2   31 1   
     6    3    4 ar  
     7    3   32 1   
     8    4   18 1   
     9    4   19 ar  
    10    5   19 ar  
    11    5   33 1   
    12    6    7 1   
    13    6   25 1   
    14    6   26 2   
    15    7   10 ar  
    16    7   30 ar  
    17    8    9 ar  
    18    8   27 1   
    19    8   29 ar  
    20    9   10 ar  
    21    9   36 1   
    22   10   37 1   
    23   11   14 ar  
    24   11   17 ar  
    25   11   38 1   
    26   12   13 1   
    27   12   14 ar  
    28   12   15 ar  
    29   14   39 1   
    30   15   16 ar  
    31   15   40 1   
    32   16   17 ar  
    33   16   41 1   
    34   17   18 1   
    35   18   24 1   
    36   18   42 1   
    37   19   43 1   
    38   20   21 2   
    39   20   22 2   
    40   20   23 1   
    41   23   44 1   
    42   23   45 1   
    43   23   46 1   
    44   24   47 1   
    45   24   48 1   
    46   24   52 1   
    47   25   49 1   
    48   25   52 1   
    49   27   28 3   
    50   29   30 ar  
    51   29   50 1   
    52   30   51 1   
    53   34   52 1   
    54   35   52 1   
@<TRIPOS>SUBSTRUCTURE
     1 34N         1 TEMP              0 ****  ****    0 ROOT
