@<TRIPOS>MOLECULE
34N
   53    55     1     0     0
SMALL
bcc


@<TRIPOS>ATOM
      1 C5          0.1030   -0.2720   -0.2470 ca        1 34N     -0.357500
      2 C6          1.4460   -0.6020   -0.0350 ca        1 34N     -0.011000
      3 C7          2.0190   -0.4960    1.2300 ca        1 34N     -0.151500
      4 C8          1.2530   -0.0530    2.3150 ca        1 34N     -0.037300
      5 C10        -0.6570    0.1650    0.8430 ca        1 34N     -0.011000
      6 C15         2.8000    3.1470    7.5030 c         1 34N      0.571700
      7 C17         2.2240    3.8710    8.6370 ca        1 34N     -0.197600
      8 C20         1.2730    5.2340   10.8850 ca        1 34N      0.085000
      9 C21         2.4850    4.5350   10.9550 ca        1 34N     -0.093500
     10 C22         2.9620    3.8590    9.8340 ca        1 34N     -0.069000
     11 C26         0.4640   -1.7000    4.7310 ca        1 34N     -0.101500
     12 C28         1.4470   -3.4730    6.0460 ca        1 34N      0.149900
     13 F29         1.3080   -4.5840    6.8020 f         1 34N     -0.119900
     14 C27         0.3090   -2.8440    5.5030 ca        1 34N     -0.161500
     15 C30         2.7300   -2.9460    5.7990 ca        1 34N     -0.161500
     16 C31         2.8610   -1.7990    5.0240 ca        1 34N     -0.101500
     17 C25         1.7340   -1.1620    4.4890 ca        1 34N     -0.136300
     18 C11         1.9060    0.0740    3.6590 c3        1 34N      0.037900
     19 C9         -0.0930    0.2740    2.1120 ca        1 34N     -0.151500
     20 S2         -0.5740   -0.3360   -1.7980 sy        1 34N      1.394300
     21 O3         -1.7000    0.4950   -1.8280 o         1 34N     -0.647300
     22 O4          0.4350   -0.1270   -2.7430 o         1 34N     -0.647300
     23 C1         -1.0590   -1.9500   -1.8350 c3        1 34N     -0.368300
     24 C12         1.3780    1.3030    4.4050 c3        1 34N     -0.104400
     25 N14         1.8260    2.7480    6.4050 n4        1 34N     -0.675800
     26 O16         3.9620    2.8080    7.3370 o         1 34N     -0.411100
     27 C23         0.7810    5.9240   12.0260 cg        1 34N      0.184800
     28 N24         0.3780    6.4890   12.9600 n1        1 34N     -0.260800
     29 C19         0.5410    5.2580    9.6850 ca        1 34N     -0.093500
     30 C18         1.0140    4.5800    8.5680 ca        1 34N     -0.069000
     31 H6          2.0650   -0.9290   -0.8910 ha        1 34N      0.166000
     32 H7          3.0780   -0.7620    1.3710 ha        1 34N      0.137000
     33 H10        -1.7150    0.4440    0.6860 ha        1 34N      0.166000
     34 H13         2.5630    0.7620    6.1590 hx        1 34N      0.119700
     35 H13A        3.3310    2.0260    5.0830 hx        1 34N      0.119700
     36 H21         3.0660    4.5210   11.8930 ha        1 34N      0.181000
     37 H22         3.9230    3.3170    9.8830 ha        1 34N      0.155000
     38 H26        -0.4240   -1.2240    4.2840 ha        1 34N      0.140500
     39 H27        -0.6880   -3.2730    5.6850 ha        1 34N      0.164000
     40 H30         3.6150   -3.4530    6.2120 ha        1 34N      0.164000
     41 H31         3.8690   -1.4050    4.8190 ha        1 34N      0.140500
     42 H11         3.0130    0.2320    3.4810 hc        1 34N      0.071700
     43 H9         -0.7170    0.6210    2.9480 ha        1 34N      0.137000
     44 H1         -1.8570   -2.1910   -1.0900 h1        1 34N      0.121700
     45 H1A        -1.4840   -2.2200   -2.8370 h1        1 34N      0.121700
     46 H1B        -0.2260   -2.6710   -1.6530 h1        1 34N      0.121700
     47 H12         0.3630    1.0710    4.8250 hc        1 34N      0.070200
     48 H12A        1.2720    2.1550    3.6820 hc        1 34N      0.070200
     49 HN14        1.6200    3.5790    5.8380 hn        1 34N      0.457300
     50 H19        -0.4070    5.8210    9.6310 ha        1 34N      0.181000
     51 H18         0.4280    4.6410    7.6380 ha        1 34N      0.155000
     52 C13         2.3520    1.6680    5.5170 c3        1 34N      0.100800
     53 H142        0.9510    2.4360    6.8410 hn        1 34N      0.457300
@<TRIPOS>BOND
     1    1    2 ar  
     2    1    5 ar  
     3    1   20 1   
     4    2    3 ar  
     5    2   31 1   
     6    3    4 ar  
     7    3   32 1   
     8    4   18 1   
     9    4   19 ar  
    10    5   19 ar  
    11    5   33 1   
    12    6    7 1   
    13    6   25 1   
    14    6   26 2   
    15    7   10 ar  
    16    7   30 ar  
    17    8    9 ar  
    18    8   27 1   
    19    8   29 ar  
    20    9   10 ar  
    21    9   36 1   
    22   10   37 1   
    23   11   14 ar  
    24   11   17 ar  
    25   11   38 1   
    26   12   13 1   
    27   12   14 ar  
    28   12   15 ar  
    29   14   39 1   
    30   15   16 ar  
    31   15   40 1   
    32   16   17 ar  
    33   16   41 1   
    34   17   18 1   
    35   18   24 1   
    36   18   42 1   
    37   19   43 1   
    38   20   21 2   
    39   20   22 2   
    40   20   23 1   
    41   23   44 1   
    42   23   45 1   
    43   23   46 1   
    44   24   47 1   
    45   24   48 1   
    46   24   52 1   
    47   25   49 1   
    48   25   52 1   
    49   25   53 1   
    50   27   28 3   
    51   29   30 ar  
    52   29   50 1   
    53   30   51 1   
    54   34   52 1   
    55   35   52 1   
@<TRIPOS>SUBSTRUCTURE
     1 34N         1 TEMP              0 ****  ****    0 ROOT
