@<TRIPOS>MOLECULE
34N
   53    55     1     0     0
SMALL
bcc


@<TRIPOS>ATOM
      1 C5          0.0970   -0.2680   -0.2290 ca        1 34N     -0.357500
      2 C6          1.4430   -0.5880   -0.0210 ca        1 34N     -0.011000
      3 C7          2.0180   -0.4820    1.2430 ca        1 34N     -0.151500
      4 C8          1.2510   -0.0460    2.3310 ca        1 34N     -0.037300
      5 C10        -0.6630    0.1610    0.8640 ca        1 34N     -0.011000
      6 C15         2.7890    3.1550    7.5210 c         1 34N      0.571700
      7 C17         2.2110    3.8780    8.6560 ca        1 34N     -0.197600
      8 C20         1.2590    5.2400   10.9030 ca        1 34N      0.085000
      9 C21         2.4750    4.5480   10.9710 ca        1 34N     -0.093500
     10 C22         2.9530    3.8720    9.8500 ca        1 34N     -0.069000
     11 C26         0.4790   -1.7040    4.7440 ca        1 34N     -0.101500
     12 C28         1.4780   -3.4730    6.0540 ca        1 34N      0.149900
     13 F29         1.3480   -4.5870    6.8080 f         1 34N     -0.119900
     14 C27         0.3350   -2.8510    5.5150 ca        1 34N     -0.161500
     15 C30         2.7560   -2.9360    5.8060 ca        1 34N     -0.161500
     16 C31         2.8770   -1.7870    5.0320 ca        1 34N     -0.101500
     17 C25         1.7450   -1.1570    4.5020 ca        1 34N     -0.136300
     18 C11         1.9070    0.0820    3.6740 c3        1 34N      0.037900
     19 C9         -0.0970    0.2720    2.1310 ca        1 34N     -0.151500
     20 S2         -0.5830   -0.3320   -1.7780 sy        1 34N      1.394300
     21 O3         -1.7150    0.4910   -1.8040 o         1 34N     -0.647300
     22 O4          0.4220   -0.1140   -2.7260 o         1 34N     -0.647300
     23 C1         -1.0570   -1.9490   -1.8180 c3        1 34N     -0.368300
     24 C12         1.3720    1.3060    4.4230 c3        1 34N     -0.104400
     25 N14         1.8150    2.7510    6.4250 ny        1 34N     -0.675800
     26 O16         3.9520    2.8190    7.3540 o         1 34N     -0.411100
     27 C23         0.7660    5.9310   12.0430 cg        1 34N      0.184800
     28 N24         0.3630    6.4960   12.9770 n1        1 34N     -0.260800
     29 C19         0.5240    5.2580    9.7040 ca        1 34N     -0.093500
     30 C18         0.9970    4.5800    8.5870 ca        1 34N     -0.069000
     31 H6          2.0620   -0.9100   -0.8790 ha        1 34N      0.166000
     32 H7          3.0790   -0.7410    1.3810 ha        1 34N      0.137000
     33 H10        -1.7240    0.4340    0.7100 ha        1 34N      0.166000
     34 H13         2.5640    0.7700    6.1740 hx        1 34N      0.119700
     35 H13A        3.3220    2.0400    5.0980 hx        1 34N      0.119700
     36 H21         3.0590    4.5390   11.9080 ha        1 34N      0.181000
     37 H22         3.9170    3.3350    9.8980 ha        1 34N      0.154500
     38 H26        -0.4130   -1.2330    4.3010 ha        1 34N      0.140500
     39 H27        -0.6590   -3.2870    5.6980 ha        1 34N      0.164000
     40 H30         3.6460   -3.4380    6.2150 ha        1 34N      0.164000
     41 H31         3.8820   -1.3850    4.8260 ha        1 34N      0.140500
     42 H11         3.0120    0.2480    3.4940 hc        1 34N      0.071700
     43 H9         -0.7220    0.6130    2.9700 ha        1 34N      0.137000
     44 H1         -1.8510   -2.1980   -1.0710 h1        1 34N      0.121700
     45 H1A        -1.4830   -2.2200   -2.8200 h1        1 34N      0.121700
     46 H1B        -0.2180   -2.6660   -1.6410 h1        1 34N      0.121700
     47 H12         0.3600    1.0660    4.8460 hc        1 34N      0.070200
     48 H12A        1.2580    2.1590    3.7030 hc        1 34N      0.070200
     49 HN14        1.6030    3.5810    5.8590 hn        1 34N      0.457300
     50 H19        -0.4270    5.8160    9.6510 ha        1 34N      0.181000
     51 H18         0.4090    4.6360    7.6590 ha        1 34N      0.154500
     52 C13         2.3460    1.6750    5.5340 c3        1 34N      0.100800
     53 H142        0.9440    2.4320    6.8620 hn        1 34N      0.457300
@<TRIPOS>BOND
     1    1    2 ar  
     2    1    5 ar  
     3    1   20 1   
     4    2    3 ar  
     5    2   31 1   
     6    3    4 ar  
     7    3   32 1   
     8    4   18 1   
     9    4   19 ar  
    10    5   19 ar  
    11    5   33 1   
    12    6    7 1   
    13    6   25 1   
    14    6   26 2   
    15    7   10 ar  
    16    7   30 ar  
    17    8    9 ar  
    18    8   27 1   
    19    8   29 ar  
    20    9   10 ar  
    21    9   36 1   
    22   10   37 1   
    23   11   14 ar  
    24   11   17 ar  
    25   11   38 1   
    26   12   13 1   
    27   12   14 ar  
    28   12   15 ar  
    29   14   39 1   
    30   15   16 ar  
    31   15   40 1   
    32   16   17 ar  
    33   16   41 1   
    34   17   18 1   
    35   18   24 1   
    36   18   42 1   
    37   19   43 1   
    38   20   21 2   
    39   20   22 2   
    40   20   23 1   
    41   23   44 1   
    42   23   45 1   
    43   23   46 1   
    44   24   47 1   
    45   24   48 1   
    46   24   52 1   
    47   25   49 1   
    48   25   52 1   
    49   25   53 1   
    50   27   28 3   
    51   29   30 ar  
    52   29   50 1   
    53   30   51 1   
    54   34   52 1   
    55   35   52 1   
@<TRIPOS>SUBSTRUCTURE
     1 34N         1 TEMP              0 ****  ****    0 ROOT
