@<TRIPOS>MOLECULE
34N
   53    55     1     0     0
SMALL
bcc


@<TRIPOS>ATOM
      1 C5         -0.0360   -0.3190   -0.1510 ca        1 34N     -0.356500
      2 C6          1.3480   -0.1270   -0.0770 ca        1 34N     -0.013500
      3 C7          1.9910   -0.0210    1.1540 ca        1 34N     -0.148000
      4 C8          1.2520   -0.1020    2.3410 ca        1 34N     -0.045300
      5 C10        -0.7630   -0.4110    1.0400 ca        1 34N     -0.013500
      6 C15         3.0010    3.2700    7.3380 c         1 34N      0.573700
      7 C17         2.3140    3.8220    8.5080 ca        1 34N     -0.195600
      8 C20         1.1310    4.8480   10.8200 ca        1 34N      0.082000
      9 C21         2.2400    3.9970   10.9230 ca        1 34N     -0.091500
     10 C22         2.8350    3.4890    9.7700 ca        1 34N     -0.072000
     11 C26         0.5130   -1.0820    5.4110 ca        1 34N     -0.104500
     12 C28         1.1590   -3.2250    6.3250 ca        1 34N      0.149900
     13 F29         0.9200   -4.2610    7.1600 f         1 34N     -0.118900
     14 C27         0.2570   -2.1450    6.2700 ca        1 34N     -0.159500
     15 C30         2.3080   -3.2240    5.5120 ca        1 34N     -0.159500
     16 C31         2.5450   -2.1510    4.6620 ca        1 34N     -0.104500
     17 C25         1.6560   -1.0670    4.6030 ca        1 34N     -0.130300
     18 C11         1.9570    0.0550    3.6580 c3        1 34N      0.038900
     19 C9         -0.1300   -0.3050    2.2750 ca        1 34N     -0.148000
     20 S2         -0.8230   -0.3750   -1.6490 sy        1 34N      1.394300
     21 O3         -2.1550    0.0190   -1.4720 o         1 34N     -0.647800
     22 O4         -0.0480    0.3080   -2.5930 o         1 34N     -0.647800
     23 C1         -0.7560   -2.0310   -1.9510 c3        1 34N     -0.369300
     24 C12         1.6180    1.4330    4.2310 c3        1 34N     -0.104400
     25 N14         2.1290    3.0040    6.1190 n4        1 34N     -0.678800
     26 O16         4.1810    2.9780    7.2170 o         1 34N     -0.408100
     27 C23         0.5200    5.3680   11.9930 cg        1 34N      0.184800
     28 N24         0.0210    5.7930   12.9540 n1        1 34N     -0.261800
     29 C19         0.6240    5.1960    9.5560 ca        1 34N     -0.091500
     30 C18         1.2120    4.6850    8.4050 ca        1 34N     -0.072000
     31 H6          1.9330   -0.0390   -1.0110 ha        1 34N      0.166500
     32 H7          3.0810    0.1280    1.1850 ha        1 34N      0.140000
     33 H10        -1.8590   -0.5510    0.9950 ha        1 34N      0.166500
     34 H13         2.1520    0.8760    6.2710 hx        1 34N      0.120200
     35 H13A        3.5200    1.6150    5.2980 hx        1 34N      0.120200
     36 H21         2.6470    3.7320   11.9140 ha        1 34N      0.181500
     37 H22         3.7180    2.8310    9.8480 ha        1 34N      0.156000
     38 H26        -0.2140   -0.2570    5.3630 ha        1 34N      0.136000
     39 H27        -0.6480   -2.1600    6.8960 ha        1 34N      0.164000
     40 H30         3.0050   -4.0770    5.5510 ha        1 34N      0.164000
     41 H31         3.4400   -2.1630    4.0190 ha        1 34N      0.136000
     42 H11         3.0730    0.0440    3.4600 hc        1 34N      0.070700
     43 H9         -0.7200   -0.3930    3.2000 ha        1 34N      0.140000
     44 H1         -1.2710   -2.6480   -1.1730 h1        1 34N      0.122033
     45 H1A        -1.2570   -2.2860   -2.9220 h1        1 34N      0.122033
     46 H1B         0.2860   -2.4280   -2.0330 h1        1 34N      0.122033
     47 H12         0.5150    1.4980    4.4260 hc        1 34N      0.071200
     48 H12A        1.8760    2.2090    3.4600 hc        1 34N      0.071200
     49 HN14        1.1410    3.0530    6.3860 hn        1 34N      0.456800
     50 H19        -0.2380    5.8810    9.4790 ha        1 34N      0.181500
     51 H18         0.8150    5.0020    7.4280 ha        1 34N      0.156000
     52 C13         2.4120    1.6680    5.5080 c3        1 34N      0.099800
     53 H142        2.3110    3.7340    5.4200 hn        1 34N      0.456800
@<TRIPOS>BOND
     1    1    2 ar  
     2    1    5 ar  
     3    1   20 1   
     4    2    3 ar  
     5    2   31 1   
     6    3    4 ar  
     7    3   32 1   
     8    4   18 1   
     9    4   19 ar  
    10    5   19 ar  
    11    5   33 1   
    12    6    7 1   
    13    6   25 1   
    14    6   26 2   
    15    7   10 ar  
    16    7   30 ar  
    17    8    9 ar  
    18    8   27 1   
    19    8   29 ar  
    20    9   10 ar  
    21    9   36 1   
    22   10   37 1   
    23   11   14 ar  
    24   11   17 ar  
    25   11   38 1   
    26   12   13 1   
    27   12   14 ar  
    28   12   15 ar  
    29   14   39 1   
    30   15   16 ar  
    31   15   40 1   
    32   16   17 ar  
    33   16   41 1   
    34   17   18 1   
    35   18   24 1   
    36   18   42 1   
    37   19   43 1   
    38   20   21 2   
    39   20   22 2   
    40   20   23 1   
    41   23   44 1   
    42   23   45 1   
    43   23   46 1   
    44   24   47 1   
    45   24   48 1   
    46   24   52 1   
    47   25   49 1   
    48   25   52 1   
    49   25   53 1   
    50   27   28 3   
    51   29   30 ar  
    52   29   50 1   
    53   30   51 1   
    54   34   52 1   
    55   35   52 1   
@<TRIPOS>SUBSTRUCTURE
     1 34N         1 TEMP              0 ****  ****    0 ROOT
