@<TRIPOS>MOLECULE
34N
   52    44     1     0     0
SMALL
bcc


@<TRIPOS>ATOM
      1 C5         -0.6850   -0.3660   -4.6840 c1        1 34N     -0.836000
      2 C6          0.6420    0.0190   -4.5620 c1        1 34N     -0.087500
      3 C7          1.2810   -0.0750   -3.3340 c1        1 34N     -0.087500
      4 C8          0.5940   -0.5540   -2.2290 c1        1 34N     -0.051500
      5 C10        -1.3720   -0.8450   -3.5790 c1        1 34N     -0.015000
      6 C13         2.1090    0.8780    0.8630 c3        1 34N     -0.029000
      7 C15         1.2850    1.0010    3.2220 c1        1 34N      0.338000
      8 C17         0.3110    1.6800    4.1900 c1        1 34N     -0.004500
      9 C20        -1.3890    2.9410    5.9810 c1        1 34N      0.010000
     10 C21        -0.8950    1.6790    6.2680 c1        1 34N     -0.099500
     11 C22        -0.0450    1.0480    5.3730 c2        1 34N     -0.125500
     12 C26         1.4650   -2.3610    0.9710 c1        1 34N     -0.122000
     13 C28         0.1430   -4.3590    0.9740 c1        1 34N     -0.004500
     14 F29        -0.1950   -5.5260    1.5410 f         1 34N     -0.104000
     15 C27         1.0730   -3.5400    1.5830 c1        1 34N     -0.134500
     16 C30        -0.3970   -4.0020   -0.2510 c2        1 34N     -0.125500
     17 C31        -0.0050   -2.8260   -0.8620 c1        1 34N     -0.099500
     18 C25         0.9260   -2.0050   -0.2510 c1        1 34N     -0.051500
     19 C11         1.3090   -0.6950   -0.8890 c3        1 34N     -0.028000
     20 C9         -0.7320   -0.9390   -2.3510 c1        1 34N     -0.122000
     21 S2         -1.4600   -0.3900   -6.2920 s4        1 34N      2.078800
     22 O3         -2.5640   -1.3100   -6.3250 o         1 34N     -0.544900
     23 O4         -0.5890   -0.9640   -7.2830 o         1 34N     -0.544900
     24 C1         -1.9710    1.2500   -6.7540 c2        1 34N     -0.935000
     25 C12         0.9060    0.4470    0.0240 c3        1 34N     -0.183000
     26 N14         1.6530    1.6590    1.9940 n3        1 34N     -0.368000
     27 O16         1.8100   -0.0520    3.5280 o         1 34N     -0.363000
     28 C23        -2.4230    3.5710    6.8910 c1        1 34N     -0.104000
     29 N24        -3.2000    4.0450    7.5750 n1        1 34N     -0.021000
     30 C19        -1.0330    3.5720    4.7990 c1        1 34N     -0.101000
     31 C18        -0.1820    2.9390    3.9030 c1        1 34N     -0.134500
     32 H6          1.1270    0.3560   -5.3410 ha        1 34N      0.148000
     33 H7          2.2160    0.1960   -3.2480 ha        1 34N      0.148000
     34 H10        -2.3040   -1.1160   -3.6640 ha        1 34N      0.156000
     35 H13         2.5840    0.0850    1.1840 h1        1 34N      0.105000
     36 H13A        2.7120    1.4210    0.3140 h1        1 34N      0.105000
     37 H21        -1.1440    1.2370    7.0970 ha        1 34N      0.144500
     38 H22         0.3020    0.1610    5.5750 ha        1 34N      0.156000
     39 H26         2.1200   -1.7840    1.4010 ha        1 34N      0.157500
     40 H27         1.4530   -3.7910    2.4450 ha        1 34N      0.151000
     41 H30        -1.0510   -4.5780   -0.6800 ha        1 34N      0.156000
     42 H31        -0.3840   -2.5750   -1.7210 ha        1 34N      0.144500
     43 H11         2.2720   -0.6730   -1.0310 hc        1 34N      0.100000
     44 H9         -1.2140   -1.2750   -1.5740 ha        1 34N      0.157500
     45 H1         -2.2600    1.2510   -7.6930 ha        1 34N      0.152000
     46 H1A        -1.2200    1.8690   -6.6440 ha        1 34N      0.152000
     47 H1B        -2.7150    1.5330   -6.1820 ha        1 34N      0.152000
     48 H12         0.5980    1.2010   -0.5150 hc        1 34N      0.096500
     49 H12A        0.1840    0.1520    0.6160 hc        1 34N      0.096500
     50 HN14        1.6660    2.5740    1.9530 hn        1 34N      0.223000
     51 H19        -1.3800    4.4580    4.5970 ha        1 34N      0.151000
     52 H18         0.0670    3.3800    3.0780 ha        1 34N      0.151000
@<TRIPOS>BOND
     1    1    5 1   
     2    1   21 1   
     3    2    3 1   
     4    2   32 1   
     5    3   33 1   
     6    4   19 1   
     7    4   20 1   
     8    5   34 1   
     9    6   25 1   
    10    6   26 1   
    11    6   35 1   
    12    6   36 1   
    13    7   26 1   
    14    7   27 1   
    15    8   11 1   
    16    8   31 1   
    17    9   28 1   
    18    9   30 1   
    19   10   11 1   
    20   10   37 1   
    21   11   38 1   
    22   12   18 1   
    23   12   39 1   
    24   13   15 1   
    25   13   16 1   
    26   15   40 1   
    27   16   17 1   
    28   16   41 1   
    29   17   42 1   
    30   18   19 1   
    31   19   25 1   
    32   19   43 1   
    33   20   44 1   
    34   21   22 1   
    35   21   23 1   
    36   24   45 1   
    37   24   46 1   
    38   24   47 1   
    39   25   48 1   
    40   25   49 1   
    41   26   50 1   
    42   28   29 1   
    43   30   51 1   
    44   31   52 1   
@<TRIPOS>SUBSTRUCTURE
     1 34N         1 TEMP              0 ****  ****    0 ROOT
