@<TRIPOS>MOLECULE
34O
   38    36     1     0     0
SMALL
bcc


@<TRIPOS>ATOM
      1 C8          0.0050   -6.7830   -4.5370 c3        1 34O      0.098000
      2 C10        -1.1230   -1.3280   -2.3540 c2        1 34O      0.011000
      3 C6          0.0070   -4.5010   -4.8470 c1        1 34O      0.018000
      4 C5         -0.3790   -4.7510   -3.5340 c1        1 34O      0.018000
      5 C4         -0.7500   -3.6810   -2.6920 c1        1 34O     -0.102500
      6 C1          0.0280   -3.2010   -5.3300 c1        1 34O     -0.102500
      7 C2         -0.3420   -2.1320   -4.4910 c1        1 34O     -0.081000
      8 C3         -0.7300   -2.3820   -3.1720 c1        1 34O     -0.032000
      9 F25         2.6270    2.2830    4.6440 f         1 34O     -0.097000
     10 C19         1.5140    2.7110    4.1370 c2        1 34O      0.062000
     11 C20         0.9400    3.8440    4.6250 c1        1 34O      0.036000
     12 O23         1.5830    4.5830    5.5980 o         1 34O     -0.215000
     13 C24         2.3910    5.6230    5.0800 c3        1 34O     -0.078000
     14 C21        -0.3390    4.2230    4.1940 c2        1 34O     -0.120000
     15 C22        -1.0130    3.4570    3.2840 c1        1 34O     -0.109000
     16 C18         0.8210    1.9260    3.2020 c2        1 34O     -0.132000
     17 C17        -0.4330    2.3020    2.7830 c1        1 34O     -0.078000
     18 C16        -1.1510    1.5090    1.6980 c3        1 34O     -0.255000
     19 S15        -0.1880    1.5030    0.2660 ss        1 34O      0.370000
     20 C12        -0.8970    0.3540   -0.9510 c2        1 34O     -0.224000
     21 N13        -2.0790    0.5010   -1.5940 n2        1 34O     -0.108000
     22 N14        -2.2170   -0.5440   -2.4650 n2        1 34O     -0.070000
     23 O11        -0.3030   -0.7780   -1.4200 os        1 34O     -0.111000
     24 O7          0.2770   -5.7460   -5.4740 os        1 34O     -0.212500
     25 O9         -0.4020   -6.1860   -3.3430 os        1 34O     -0.212500
     26 H8          0.8230   -7.2910   -4.3790 h2        1 34O      0.116000
     27 H8A        -0.7470   -7.3630   -4.8930 h2        1 34O      0.116000
     28 H4         -1.0310   -3.8530   -1.8020 ha        1 34O      0.167500
     29 H1          0.2970   -3.0280   -6.2520 ha        1 34O      0.167500
     30 H2         -0.2280   -1.1980   -4.8040 ha        1 34O      0.164000
     31 H24         1.9350    6.0550    4.3910 h1        1 34O      0.087000
     32 H24A        3.2370    5.2450    4.7290 h1        1 34O      0.087000
     33 H24B        2.5880    6.2530    5.7790 h1        1 34O      0.087000
     34 H21        -0.7660    5.0670    4.5590 ha        1 34O      0.157000
     35 H22        -1.8980    3.7200    2.9860 ha        1 34O      0.147000
     36 H18         1.2260    1.1180    2.8520 ha        1 34O      0.157000
     37 H16        -1.3010    0.5570    2.0140 h1        1 34O      0.135500
     38 H16A       -1.9850    1.9140    1.5140 h1        1 34O      0.135500
@<TRIPOS>BOND
     1    1   24 1   
     2    1   25 1   
     3    1   26 1   
     4    1   27 1   
     5    2    8 1   
     6    2   22 1   
     7    2   23 1   
     8    3    6 1   
     9    3   24 1   
    10    4    5 1   
    11    4   25 1   
    12    5   28 1   
    13    6   29 1   
    14    7    8 1   
    15    7   30 1   
    16    9   10 1   
    17   10   11 1   
    18   10   16 1   
    19   11   14 1   
    20   12   13 1   
    21   13   31 1   
    22   13   32 1   
    23   13   33 1   
    24   14   15 1   
    25   14   34 1   
    26   15   35 1   
    27   16   17 1   
    28   16   36 1   
    29   17   18 1   
    30   18   19 1   
    31   18   37 1   
    32   18   38 1   
    33   19   20 1   
    34   20   21 1   
    35   20   23 1   
    36   21   22 1   
@<TRIPOS>SUBSTRUCTURE
     1 34O         1 TEMP              0 ****  ****    0 ROOT
