@<TRIPOS>MOLECULE
34O
   38    41     1     0     0
SMALL
bcc


@<TRIPOS>ATOM
      1 C8         -8.3550    0.0700    0.1210 c3        1 34O      0.320200
      2 C10        -2.4280    0.6000   -0.1920 cc        1 34O      0.508900
      3 C6         -6.3100   -0.8870    0.4250 ca        1 34O      0.079100
      4 C5         -6.1130    0.4350   -0.0570 ca        1 34O      0.045100
      5 C4         -4.8580    0.9620   -0.2730 ca        1 34O     -0.070000
      6 C1         -5.2500   -1.7260    0.7070 ca        1 34O     -0.122000
      7 C2         -3.9650   -1.2010    0.4910 ca        1 34O     -0.092000
      8 C3         -3.7700    0.1020    0.0150 ca        1 34O     -0.137500
      9 C19         5.7460    0.2860    0.9800 ca        1 34O      0.101900
     10 C20         6.3620   -0.3550   -0.1290 ca        1 34O      0.108100
     11 O23         7.6450   -0.8030    0.0950 os        1 34O     -0.308900
     12 C24         8.2860   -1.4490   -1.0010 c3        1 34O      0.110700
     13 C21         5.6630   -0.4880   -1.3320 ca        1 34O     -0.187000
     14 C22         4.3660    0.0070   -1.4400 ca        1 34O     -0.084000
     15 C18         4.4400    0.7770    0.8540 ca        1 34O     -0.118000
     16 C17         3.7470    0.6360   -0.3540 ca        1 34O     -0.109300
     17 C16         2.3760    1.1730   -0.4850 c3        1 34O      0.019000
     18 C12        -0.2140    0.5190   -0.2130 cc        1 34O      0.496700
     19 N13        -0.6280    1.7390   -0.6380 nd        1 34O     -0.372000
     20 N14        -1.9450    1.7850   -0.6250 nd        1 34O     -0.331000
     21 O11        -1.3420   -0.2590    0.0900 os        1 34O     -0.371800
     22 O7         -7.6710   -1.1350    0.5420 os        1 34O     -0.329900
     23 O9         -7.3510    1.0420   -0.2510 os        1 34O     -0.328900
     24 H8         -8.9730   -0.1690   -0.7790 h2        1 34O      0.076700
     25 H8A        -8.9360    0.4700    0.9880 h2        1 34O      0.076700
     26 H4         -4.7070    1.9840   -0.6460 ha        1 34O      0.180000
     27 H1         -5.3980   -2.7470    1.0790 ha        1 34O      0.162000
     28 H2         -3.0900   -1.8360    0.7030 ha        1 34O      0.156000
     29 H24         8.3890   -0.7490   -1.8660 h1        1 34O      0.049367
     30 H24A        9.2910   -1.7170   -0.5870 h1        1 34O      0.049367
     31 H24B        7.7240   -2.3660   -1.3020 h1        1 34O      0.049367
     32 H21         6.1300   -0.9790   -2.1980 ha        1 34O      0.147000
     33 H22         3.8240   -0.1000   -2.3930 ha        1 34O      0.144000
     34 H18         3.9680    1.2750    1.7160 ha        1 34O      0.158000
     35 H16         2.2180    2.0610    0.1770 h1        1 34O      0.094700
     36 H16A        2.1610    1.4930   -1.5350 h1        1 34O      0.094700
     37 S15         1.2960   -0.1590   -0.0050 ss        1 34O     -0.142400
     38 F25         6.4160    0.4210    2.1470 f         1 34O     -0.121900
@<TRIPOS>BOND
     1    1   22 1   
     2    1   23 1   
     3    1   24 1   
     4    1   25 1   
     5    2    8 1   
     6    2   20 2   
     7    2   21 1   
     8    3    4 ar  
     9    3    6 ar  
    10    3   22 1   
    11    4    5 ar  
    12    4   23 1   
    13    5    8 ar  
    14    5   26 1   
    15    6    7 ar  
    16    6   27 1   
    17    7    8 ar  
    18    7   28 1   
    19    9   10 ar  
    20    9   15 ar  
    21    9   38 1   
    22   10   11 1   
    23   10   13 ar  
    24   11   12 1   
    25   12   29 1   
    26   12   30 1   
    27   12   31 1   
    28   13   14 ar  
    29   13   32 1   
    30   14   16 ar  
    31   14   33 1   
    32   15   16 ar  
    33   15   34 1   
    34   16   17 1   
    35   17   35 1   
    36   17   36 1   
    37   17   37 1   
    38   18   19 2   
    39   18   21 1   
    40   18   37 1   
    41   19   20 1   
@<TRIPOS>SUBSTRUCTURE
     1 34O         1 TEMP              0 ****  ****    0 ROOT
