@<TRIPOS>MOLECULE
34O
   38    38     1     0     0
SMALL
bcc


@<TRIPOS>ATOM
      1 C8         -0.0670    0.7310   -0.4860 c1        1 34O      0.180000
      2 C10         1.6410    0.4060    6.0740 c2        1 34O      0.068000
      3 C6          1.3570   -0.1750    1.2970 c3        1 34O      0.114000
      4 C5          1.7230    1.0760    2.1130 c3        1 34O     -0.082000
      5 C4          1.6980    0.8260    3.5200 c1        1 34O     -0.076000
      6 C1          2.4370   -1.1240    1.2350 c1        1 34O     -0.190000
      7 C2          3.3260   -1.9220    1.1860 c1        1 34O     -0.140000
      8 C3          1.6810    0.6330    4.7010 c1        1 34O     -0.090000
      9 C19         5.2600   -1.1080   13.3510 ca        1 34O      0.117000
     10 C20         5.4020    0.1040   14.0570 ca        1 34O     -0.096000
     11 O23         6.3610    0.1380   15.1040 os        1 34O     -0.019000
     12 C24         6.1980    0.7910   16.1880 c1        1 34O     -0.002000
     13 C21         4.6750    1.2360   13.6900 ca        1 34O     -0.132000
     14 C22         3.7920    1.1690   12.6150 ca        1 34O     -0.106000
     15 C18         4.3650   -1.1640   12.2660 ca        1 34O     -0.138000
     16 C17         3.6370   -0.0280   11.9010 ca        1 34O     -0.066000
     17 C16         2.6840   -0.0970   10.7700 c3        1 34O     -0.263000
     18 C12         2.4620    0.2740    8.1240 c2        1 34O     -0.218000
     19 N13         1.1400   -0.0430    8.1400 n2        1 34O     -0.114000
     20 N14         0.6530    0.0370    6.9210 n2        1 34O     -0.037000
     21 O11         2.8410    0.5730    6.8100 os        1 34O     -0.094000
     22 O7          1.0760    0.2450   -0.0650 os        1 34O     -0.233000
     23 O9         -1.0720    0.9240    0.3320 oh        1 34O     -0.272000
     24 H8         -0.9530    0.6830    1.2680 ho        1 34O      0.202000
     25 H8A         0.9920    1.8970    1.8610 hc        1 34O      0.129500
     26 H4          2.7460    1.4330    1.8030 hc        1 34O      0.129500
     27 H1          0.4440   -0.6810    1.7290 h1        1 34O      0.105000
     28 H2          4.1140   -2.6320    1.1500 ha        1 34O      0.231000
     29 H24         7.3660    2.8050   15.6200 ha        1 34O      0.004500
     30 H24A        6.7900    2.9550   15.2930 ha        1 34O      0.004500
     31 H24B        5.2680    1.3660   16.3820 ha        1 34O      0.036000
     32 H21         4.8090    2.1780   14.2450 ha        1 34O      0.151000
     33 H22         3.2160    2.0610   12.3240 ha        1 34O      0.150000
     34 H18         4.2480   -2.1100   11.7150 ha        1 34O      0.162000
     35 H16         1.8240    0.6040   10.9200 h1        1 34O      0.138000
     36 H16A        2.2600   -1.1260   10.6560 h1        1 34O      0.138000
     37 S15         3.6170    0.3580    9.3250 ss        1 34O      0.388000
     38 F25         5.9640   -2.2030   13.7060 f         1 34O     -0.080000
@<TRIPOS>BOND
     1    1   22 1   
     2    1   23 1   
     3    2    8 1   
     4    2   20 1   
     5    2   21 1   
     6    3    4 1   
     7    3    6 1   
     8    3   22 1   
     9    3   27 1   
    10    4    5 1   
    11    4   25 1   
    12    4   26 1   
    13    5    8 1   
    14    6    7 1   
    15    7   28 1   
    16    9   10 1   
    17    9   15 1   
    18    9   38 1   
    19   10   11 1   
    20   10   13 1   
    21   11   12 1   
    22   12   31 1   
    23   13   14 1   
    24   13   32 1   
    25   14   16 1   
    26   14   33 1   
    27   15   16 1   
    28   15   34 1   
    29   16   17 1   
    30   17   35 1   
    31   17   36 1   
    32   17   37 1   
    33   18   19 1   
    34   18   21 1   
    35   18   37 1   
    36   19   20 1   
    37   23   24 1   
    38   29   30 1   
@<TRIPOS>SUBSTRUCTURE
     1 34O         1 TEMP              0 ****  ****    0 ROOT
