@<TRIPOS>MOLECULE
34O
   38    38     1     0     0
SMALL
bcc


@<TRIPOS>ATOM
      1 C8          1.7180   -0.6990   -0.9310 c1        1 34O     -0.004000
      2 C10         1.6170    0.5630    5.8200 c2        1 34O     -0.017000
      3 C6          1.5990   -0.0320    1.3740 c2        1 34O     -0.143000
      4 C5          0.8180    0.8010    2.1180 c2        1 34O      0.094000
      5 C4          0.7080    0.7630    3.5700 c2        1 34O     -0.075000
      6 C1          2.4670   -1.0600    1.8750 c2        1 34O     -0.436000
      7 C2          2.9280   -1.1960    3.1090 c1        1 34O      0.207000
      8 C3          1.7700    0.6660    4.3910 c2        1 34O     -0.082000
      9 C19         4.6060   -1.1420   13.3240 c2        1 34O      0.051000
     10 C20         5.0760   -0.0130   13.9430 c2        1 34O     -0.109000
     11 O23         6.0230   -0.1720   14.9830 os        1 34O     -0.026000
     12 C24         6.2230    0.6830   15.9120 c1        1 34O      0.012000
     13 C21         4.6760    1.3390   13.4980 c3        1 34O     -0.214000
     14 C22         3.7690    1.4250   12.3630 c1        1 34O     -0.047000
     15 C18         3.7010   -1.0150   12.1970 c2        1 34O     -0.010000
     16 C17         3.3240    0.2190   11.7420 c2        1 34O     -0.175000
     17 C16         2.3950    0.3540   10.5960 c3        1 34O     -0.242000
     18 C12         2.3260    0.4770    7.9150 c2        1 34O     -0.214000
     19 N13         0.9710    0.3650    7.8870 n2        1 34O     -0.113000
     20 N14         0.5530    0.4180    6.6400 n2        1 34O     -0.056000
     21 O11         2.7950    0.6090    6.6010 os        1 34O     -0.100000
     22 O7          1.5320    0.1860   -0.0390 os        1 34O     -0.039000
     23 O9         -0.0270    1.7300    1.5620 oh        1 34O     -0.237000
     24 H8          0.0720    1.7080    0.5960 ho        1 34O      0.243000
     25 H8A         1.9780   -1.7490   -0.6810 ha        1 34O      0.038000
     26 H4         -0.3270    0.8240    3.9550 ha        1 34O      0.177000
     27 H1          2.7880   -1.8370    1.1450 ha        1 34O      0.193000
     28 H2          2.8230    0.7340    4.0490 ha        1 34O      0.174000
     29 H24         7.5170    2.1450   14.4990 ha        1 34O      0.005000
     30 H24A        8.0240    1.8850   14.8680 ha        1 34O      0.005000
     31 H24B        5.6270    1.6180   15.9760 ha        1 34O      0.033000
     32 H21         4.1760    1.8990   14.3470 hc        1 34O      0.179000
     33 H22         5.5990    1.9400   13.2300 hc        1 34O      0.179000
     34 H18         3.3420   -1.9530   11.7380 ha        1 34O      0.163000
     35 H16         1.7700    1.2770   10.7060 h1        1 34O      0.140000
     36 H16A        1.7070   -0.5230   10.5100 h1        1 34O      0.140000
     37 S15         3.4370    0.4820    9.1580 ss        1 34O      0.381000
     38 F25         4.9560   -2.3870   13.7160 f         1 34O     -0.079000
@<TRIPOS>BOND
     1    1   22 1   
     2    1   25 1   
     3    2    8 1   
     4    2   20 1   
     5    2   21 1   
     6    3    4 1   
     7    3    6 1   
     8    3   22 1   
     9    4    5 1   
    10    4   23 1   
    11    5    8 1   
    12    5   26 1   
    13    6    7 1   
    14    6   27 1   
    15    8   28 1   
    16    9   10 1   
    17    9   15 1   
    18    9   38 1   
    19   10   11 1   
    20   10   13 1   
    21   11   12 1   
    22   12   31 1   
    23   13   14 1   
    24   13   32 1   
    25   13   33 1   
    26   14   16 1   
    27   15   16 1   
    28   15   34 1   
    29   16   17 1   
    30   17   35 1   
    31   17   36 1   
    32   17   37 1   
    33   18   19 1   
    34   18   21 1   
    35   18   37 1   
    36   19   20 1   
    37   23   24 1   
    38   29   30 1   
@<TRIPOS>SUBSTRUCTURE
     1 34O         1 TEMP              0 ****  ****    0 ROOT
