@<TRIPOS>MOLECULE
34P
   63    66     1     0     0
SMALL
bcc


@<TRIPOS>ATOM
      1 C16         1.5560   -1.9540   -0.0700 c         1 34P      0.621100
      2 O17         1.2570   -2.5080   -1.1480 o         1 34P     -0.615100
      3 C18         2.7720   -0.9940    0.0190 c3        1 34P      0.131500
      4 C21         3.4540   -0.9940   -1.3590 c3        1 34P     -0.064400
      5 C22         4.8210   -0.3280   -1.3540 c3        1 34P     -0.062700
      6 C23         5.8660   -1.2070   -0.6800 c3        1 34P     -0.073400
      7 C24         7.2390   -0.5690   -0.7300 c3        1 34P     -0.075400
      8 C25         7.6520   -0.2560   -2.1530 c3        1 34P     -0.074400
      9 C26         6.6160    0.6090   -2.8410 c3        1 34P     -0.075400
     10 C27         5.2420   -0.0270   -2.7890 c3        1 34P     -0.073400
     11 N19         2.5160    0.3290    0.5460 n3        1 34P     -0.811200
     12 C20         1.5640    1.1580   -0.1620 c3        1 34P      0.057800
     13 C30         0.1590    1.2190    0.4500 c         1 34P      0.642100
     14 O32        -0.7700    1.7140   -0.2860 os        1 34P     -0.419900
     15 O31        -0.0670    0.7960    1.6160 o         1 34P     -0.737000
     16 N15         0.7890   -2.1880    1.0620 n         1 34P     -0.446800
     17 C11        -0.2140   -3.2440    1.0810 c3        1 34P      0.027700
     18 C9         -1.6910   -2.8090    0.9360 c         1 34P      0.655100
     19 O10        -2.5070   -3.7100    0.6270 o         1 34P     -0.659100
     20 C12        -0.0810   -3.9610    2.4480 c3        1 34P     -0.087400
     21 C13         0.7230   -3.0190    3.3350 c3        1 34P     -0.096400
     22 C14         1.2360   -1.8950    2.4140 c3        1 34P      0.066000
     23 C1         -3.8550    2.1670   -0.7330 c2        1 34P     -0.076300
     24 C2         -5.1060    1.5580   -0.5580 ce        1 34P     -0.073000
     25 N3         -5.0810    0.3510    0.1250 ne        1 34P     -0.582300
     26 C4         -3.7990    0.0750    0.4540 c2        1 34P      0.315600
     27 S5         -2.6740    1.2430   -0.0580 s4        1 34P     -0.169500
     28 C7         -3.4770   -1.1640    1.2370 c3        1 34P      0.089700
     29 N8         -2.0830   -1.5360    1.2400 n         1 34P     -0.547900
     30 N28        -6.5500    3.4300   -1.0050 n2        1 34P     -0.851100
     31 N29        -7.3140    1.2040   -1.5850 nh        1 34P     -0.940800
     32 H18         3.4950   -1.4850    0.7450 h1        1 34P      0.051700
     33 H211        3.5590   -2.0620   -1.6900 hc        1 34P      0.058700
     34 H212        2.7880   -0.4870   -2.1050 hc        1 34P      0.058700
     35 H22         4.7610    0.6470   -0.7940 hc        1 34P      0.072700
     36 H231        5.5780   -1.3790    0.3900 hc        1 34P      0.038450
     37 H232        5.8980   -2.2060   -1.1880 hc        1 34P      0.038450
     38 H241        7.2320    0.3770   -0.1270 hc        1 34P      0.034200
     39 H242        7.9900   -1.2600   -0.2640 hc        1 34P      0.034200
     40 H251        8.6420    0.2690   -2.1530 hc        1 34P      0.031200
     41 H252        7.7770   -1.2140   -2.7240 hc        1 34P      0.031200
     42 H261        6.5800    1.6130   -2.3430 hc        1 34P      0.034200
     43 H262        6.9120    0.7720   -3.9090 hc        1 34P      0.034200
     44 H271        5.2440   -0.9790   -3.3820 hc        1 34P      0.038450
     45 H272        4.4940    0.6620   -3.2590 hc        1 34P      0.038450
     46 HN19        2.2320    0.2620    1.5120 hn        1 34P      0.380800
     47 H201        1.9770    2.2070   -0.1450 h1        1 34P      0.061200
     48 H202        1.4600    0.8440   -1.2350 h1        1 34P      0.061200
     49 H11        -0.0300   -3.9580    0.2240 h1        1 34P      0.102700
     50 H121       -1.0870   -4.1810    2.8790 hc        1 34P      0.055700
     51 H122        0.4530   -4.9330    2.3080 hc        1 34P      0.055700
     52 H131        0.0840   -2.5870    4.1430 hc        1 34P      0.045200
     53 H132        1.5770   -3.5520    3.8190 hc        1 34P      0.045200
     54 H141        0.8000   -0.9000    2.7230 h1        1 34P      0.068700
     55 H142        2.3560   -1.8360    2.4690 h1        1 34P      0.068700
     56 H71        -3.7820   -0.9820    2.3120 h1        1 34P      0.058200
     57 H72        -4.0870   -2.0330    0.8480 h1        1 34P      0.058200
     58 HN8        -1.4080   -0.8070    1.3700 hn        1 34P      0.360500
     59 HN28       -7.4260    3.7640   -1.3510 hn        1 34P      0.356400
     60 H291       -7.0930    0.2500   -1.4020 hn        1 34P      0.384300
     61 H292       -8.2700    1.4120   -1.4030 hn        1 34P      0.384300
     62 C6         -6.3900    2.1380   -1.0420 ce        1 34P      0.698500
     63 H1         -3.7200    3.1190   -1.2410 h4        1 34P      0.167000
@<TRIPOS>BOND
     1    1    2 2   
     2    1    3 1   
     3    1   16 1   
     4    3    4 1   
     5    3   11 1   
     6    3   32 1   
     7    4    5 1   
     8    4   33 1   
     9    4   34 1   
    10    5    6 1   
    11    5   10 1   
    12    5   35 1   
    13    6    7 1   
    14    6   36 1   
    15    6   37 1   
    16    7    8 1   
    17    7   38 1   
    18    7   39 1   
    19    8    9 1   
    20    8   40 1   
    21    8   41 1   
    22    9   10 1   
    23    9   42 1   
    24    9   43 1   
    25   10   44 1   
    26   10   45 1   
    27   11   12 1   
    28   11   46 1   
    29   12   13 1   
    30   12   47 1   
    31   12   48 1   
    32   13   14 1   
    33   13   15 2   
    34   14   27 1   
    35   16   17 1   
    36   16   22 1   
    37   17   18 1   
    38   17   20 1   
    39   17   49 1   
    40   18   19 2   
    41   18   29 1   
    42   20   21 1   
    43   20   50 1   
    44   20   51 1   
    45   21   22 1   
    46   21   52 1   
    47   21   53 1   
    48   22   54 1   
    49   22   55 1   
    50   23   24 2   
    51   23   27 1   
    52   23   63 1   
    53   24   25 1   
    54   24   62 1   
    55   25   26 2   
    56   26   27 1   
    57   26   28 1   
    58   28   29 1   
    59   28   56 1   
    60   28   57 1   
    61   29   58 1   
    62   30   59 1   
    63   30   62 2   
    64   31   60 1   
    65   31   61 1   
    66   31   62 1   
@<TRIPOS>SUBSTRUCTURE
     1 34P         1 TEMP              0 ****  ****    0 ROOT
