@<TRIPOS>MOLECULE
34P
   63    59     1     0     0
SMALL
bcc


@<TRIPOS>ATOM
      1 C16         0.3020   -1.1560    1.4140 c1        1 34P      0.268000
      2 O17        -0.3350   -1.8570    2.1820 o         1 34P     -0.362000
      3 C18         1.8050   -1.1690    1.4590 c3        1 34P     -0.014000
      4 C21         2.2880   -0.8900    2.9180 c3        1 34P     -0.150000
      5 C22         3.5200   -0.0010    2.8850 c3        1 34P     -0.091000
      6 C23         3.1290    1.3940    3.3760 c3        1 34P     -0.153500
      7 C24         4.3330    2.3070    3.5520 c3        1 34P     -0.154000
      8 C25         5.4240    1.6740    4.4050 c3        1 34P     -0.154000
      9 C26         5.8140    0.2840    3.9150 c3        1 34P     -0.154000
     10 C27         4.6090   -0.6310    3.7370 c3        1 34P     -0.153500
     11 N19         2.2730   -2.4270    1.0460 n3        1 34P     -0.287000
     12 C20         3.1530   -2.2710   -0.0610 c3        1 34P     -0.124000
     13 C30         3.8980   -3.5940   -0.3120 c2        1 34P      0.299000
     14 O32         5.0840   -3.7410    0.1130 o         1 34P     -0.542000
     15 O31         3.2880   -4.5760   -0.8430 o         1 34P     -0.542000
     16 N15        -0.3930   -0.2650    0.4930 n2        1 34P     -0.330000
     17 C11        -2.0010   -0.0820    0.3560 c3        1 34P      0.002000
     18 C9         -2.5000   -0.9500   -0.7430 c1        1 34P      0.294000
     19 O10        -1.7750   -1.8050   -1.2180 o         1 34P     -0.419000
     20 C12        -2.1350    1.2320    0.1200 c3        1 34P     -0.166000
     21 C13        -0.8320    1.6710   -0.5470 c3        1 34P     -0.169000
     22 C14         0.1500    0.5230   -0.3630 c3        1 34P     -0.019000
     23 C1         -7.1030    0.8320   -4.0250 c1        1 34P     -0.614000
     24 C2         -6.1750    0.7090   -5.1290 c1        1 34P     -0.166000
     25 N3         -4.9530   -0.1500   -4.6510 n2        1 34P     -0.110000
     26 C4         -5.1700   -0.5260   -3.2700 c1        1 34P     -0.401000
     27 S5         -6.5140    0.0690   -2.8260 ss        1 34P      0.907000
     28 C6         -6.3140    1.3960   -6.5050 c1        1 34P      0.163000
     29 C7         -4.2860   -1.4720   -2.4430 c2        1 34P      0.043000
     30 N8         -3.8770   -0.8100   -1.2210 n2        1 34P     -0.339000
     31 N28        -6.8660    0.7420   -7.5210 n1        1 34P     -0.346000
     32 N29        -5.8500    2.7480   -6.6860 n3        1 34P     -0.334000
     33 H18         2.1670   -0.4530    0.8400 h1        1 34P      0.099000
     34 H211        2.5110   -1.7540    3.3650 hc        1 34P      0.088000
     35 H212        1.5770   -0.4410    3.4160 hc        1 34P      0.088000
     36 H22         3.8440    0.0650    1.9490 hc        1 34P      0.096000
     37 H231        2.6570    1.3060    4.2580 hc        1 34P      0.082000
     38 H232        2.5240    1.7940    2.7360 hc        1 34P      0.082000
     39 H241        4.0370    3.1500    3.9830 hc        1 34P      0.073750
     40 H242        4.6990    2.5130    2.6810 hc        1 34P      0.073750
     41 H251        5.1060    1.6070    5.3320 hc        1 34P      0.071000
     42 H252        6.2460    2.2730    4.3830 hc        1 34P      0.071000
     43 H261        6.4280   -0.1230    4.5660 hc        1 34P      0.073750
     44 H262        6.2750    0.3710    3.0550 hc        1 34P      0.073750
     45 H271        4.8950   -1.4360    3.3220 hc        1 34P      0.082000
     46 H272        4.2420   -0.8400    4.6090 hc        1 34P      0.082000
     47 HN19        1.5560   -2.9570    0.8000 hn        1 34P      0.193000
     48 H201        3.8070   -1.5550    0.1370 h1        1 34P      0.091000
     49 H202        2.6340   -2.0280   -0.8610 h1        1 34P      0.091000
     50 H11        -2.5620   -0.3670    1.0980 h1        1 34P      0.126000
     51 H121       -2.8910    1.3930   -0.4770 hc        1 34P      0.106500
     52 H122       -2.2620    1.7230    0.9770 hc        1 34P      0.106500
     53 H131       -0.4850    2.4880   -0.1080 hc        1 34P      0.085000
     54 H132       -0.9850    1.8400   -1.5200 hc        1 34P      0.085000
     55 H141        1.0090    0.8610   -0.0150 h1        1 34P      0.080000
     56 H142        0.2920    0.0490   -1.2290 h1        1 34P      0.080000
     57 H1         -7.9330    1.3020   -4.0390 DU        1 34P      0.145500
     58 H71        -4.7960   -2.2860   -2.2210 h4        1 34P      0.114000
     59 H72        -3.4920   -1.7150   -2.9630 h4        1 34P      0.114000
     60 HN8        -4.4430   -0.2540   -0.8010 hn        1 34P      0.264000
     61 HN28       -7.1630   -0.1170   -7.4050 DU        1 34P      0.145500
     62 H291       -5.5620    3.2330   -5.9650 hn        1 34P      0.178000
     63 H292       -5.9240    3.1500   -7.5060 hn        1 34P      0.178000
@<TRIPOS>BOND
     1    1    2 1   
     2    1    3 1   
     3    3    4 1   
     4    3   11 1   
     5    3   33 1   
     6    4    5 1   
     7    4   34 1   
     8    4   35 1   
     9    5    6 1   
    10    5   10 1   
    11    5   36 1   
    12    6    7 1   
    13    6   37 1   
    14    6   38 1   
    15    7    8 1   
    16    7   39 1   
    17    7   40 1   
    18    8    9 1   
    19    8   41 1   
    20    8   42 1   
    21    9   10 1   
    22    9   43 1   
    23    9   44 1   
    24   10   45 1   
    25   10   46 1   
    26   11   12 1   
    27   11   47 1   
    28   12   13 1   
    29   12   48 1   
    30   12   49 1   
    31   13   14 1   
    32   13   15 1   
    33   16   17 1   
    34   16   22 1   
    35   17   18 1   
    36   17   20 1   
    37   17   50 1   
    38   18   19 1   
    39   20   21 1   
    40   20   51 1   
    41   20   52 1   
    42   21   22 1   
    43   21   53 1   
    44   21   54 1   
    45   22   55 1   
    46   22   56 1   
    47   23   24 1   
    48   23   27 1   
    49   24   25 1   
    50   25   26 1   
    51   26   27 1   
    52   28   31 1   
    53   28   32 1   
    54   29   30 1   
    55   29   58 1   
    56   29   59 1   
    57   30   60 1   
    58   32   62 1   
    59   32   63 1   
@<TRIPOS>SUBSTRUCTURE
     1 34P         1 TEMP              0 ****  ****    0 ROOT
