@<TRIPOS>MOLECULE
34Q
   46    45     1     0     0
SMALL
bcc


@<TRIPOS>ATOM
      1 N1         -0.0760    0.2800   -1.1050 n         1 34Q     -0.317000
      2 N3          1.4500    2.3420    1.0750 n3        1 34Q     -0.352000
      3 C4          3.0850    0.6630    0.6200 c1        1 34Q      0.319000
      4 C5          5.2700    0.3370    1.6880 c3        1 34Q     -0.035000
      5 C6          5.9670   -0.9960    2.1790 c3        1 34Q     -0.169500
      6 C7          3.7250   -1.1960    2.5390 c3        1 34Q     -0.035000
      7 C8          4.8190   -1.9560    2.5340 c3        1 34Q     -0.169500
      8 C10        -0.9640   -0.1990   -2.1320 c2        1 34Q      0.362000
      9 C13        -5.1800    0.3110   -2.3790 c1        1 34Q     -0.031000
     10 C15        -5.5810   -1.3780   -0.6560 c1        1 34Q     -0.107000
     11 C17        -2.4750    0.0550   -2.0240 c2        1 34Q     -0.083000
     12 O2         -0.5140   -0.7660   -3.1020 o         1 34Q     -0.357000
     13 C18        -2.9760    0.9570   -2.9440 c2        1 34Q     -0.063000
     14 N5         -4.3260    1.0780   -3.1150 n1        1 34Q     -0.098000
     15 C14        -4.6770   -0.5970   -1.4530 c1        1 34Q     -0.052000
     16 N4         -3.3330   -0.7180   -1.2830 n2        1 34Q     -0.083000
     17 C16        -6.9540   -1.2260   -0.8100 c1        1 34Q     -0.107000
     18 C12        -6.5660    0.4620   -2.5330 c2        1 34Q     -0.095000
     19 C11        -7.4560   -0.3100   -1.7450 c1        1 34Q     -0.116000
     20 C1          1.2430    0.1730   -1.0870 c3        1 34Q     -0.021000
     21 C2          1.7120    0.1520    0.5060 c2        1 34Q     -0.137000
     22 C3          0.8680    1.0170    1.0690 c3        1 34Q     -0.023000
     23 C9         -0.4500    0.9980    0.1510 c3        1 34Q     -0.056000
     24 O1          3.4500    1.5800   -0.0860 o         1 34Q     -0.370000
     25 N2          4.0250    0.0290    1.5280 n3        1 34Q     -0.307000
     26 HN3         0.9490    2.9060    0.5230 hn        1 34Q      0.163000
     27 HN3A        1.4500    2.6730    1.9360 hn        1 34Q      0.163000
     28 H5          5.3600    1.0250    2.3510 h1        1 34Q      0.092750
     29 H5A         5.6740    0.6410    0.8050 h1        1 34Q      0.092750
     30 H6          6.5090   -0.8220    2.9620 hc        1 34Q      0.091750
     31 H6A         6.4990   -1.3610    1.4870 hc        1 34Q      0.091750
     32 H7          2.9620   -1.7080    2.2290 h1        1 34Q      0.092750
     33 H7A         3.5510   -0.8450    3.4670 h1        1 34Q      0.092750
     34 H8          4.9630   -2.3420    3.4030 hc        1 34Q      0.091750
     35 H8A         4.7400   -2.6750    1.8410 hc        1 34Q      0.091750
     36 H15        -5.2260   -2.0250    0.0060 ha        1 34Q      0.146000
     37 H18        -2.3520    1.4850   -3.5160 h4        1 34Q      0.197000
     38 H16        -7.5580   -1.7470   -0.2790 ha        1 34Q      0.146000
     39 H12        -6.9280    1.1180   -3.2020 ha        1 34Q      0.156000
     40 H11        -8.4130   -0.2040   -1.8520 ha        1 34Q      0.141000
     41 H1          1.6570    0.9600   -1.5560 h1        1 34Q      0.116500
     42 H1A         1.5130   -0.6500   -1.5220 h1        1 34Q      0.116500
     43 H2          1.8040   -0.7220    0.9310 ha        1 34Q      0.117000
     44 H3          0.6460    0.7270    2.0110 h1        1 34Q      0.107000
     45 H9         -0.7350    1.9380   -0.0630 h1        1 34Q      0.096500
     46 H9A        -1.1550    0.5350    0.5980 h1        1 34Q      0.096500
@<TRIPOS>BOND
     1    1    8 1   
     2    1   20 1   
     3    1   23 1   
     4    2   22 1   
     5    2   26 1   
     6    2   27 1   
     7    3   24 1   
     8    3   25 1   
     9    4    5 1   
    10    4   25 1   
    11    4   28 1   
    12    4   29 1   
    13    5    7 1   
    14    5   30 1   
    15    5   31 1   
    16    6    7 1   
    17    6   25 1   
    18    6   32 1   
    19    6   33 1   
    20    7   34 1   
    21    7   35 1   
    22    8   11 1   
    23    8   12 1   
    24    9   15 1   
    25    9   18 1   
    26   10   17 1   
    27   10   36 1   
    28   11   13 1   
    29   11   16 1   
    30   13   14 1   
    31   13   37 1   
    32   15   16 1   
    33   17   38 1   
    34   18   19 1   
    35   18   39 1   
    36   19   40 1   
    37   20   21 1   
    38   20   41 1   
    39   20   42 1   
    40   21   22 1   
    41   21   43 1   
    42   22   23 1   
    43   22   44 1   
    44   23   45 1   
    45   23   46 1   
@<TRIPOS>SUBSTRUCTURE
     1 34Q         1 TEMP              0 ****  ****    0 ROOT
