@<TRIPOS>MOLECULE
34Q
   47    50     1     0     0
SMALL
bcc


@<TRIPOS>ATOM
      1 N1         -0.1220    0.0570    0.8860 n         1 34Q     -0.475800
      2 N3          0.9760    2.8620    1.8900 n4        1 34Q     -0.837600
      3 C4          3.0300    0.8570    2.6610 c         1 34Q      0.668100
      4 C5          5.3690    0.2060    3.0780 c3        1 34Q      0.084000
      5 C6          6.0770   -1.0850    3.5100 c3        1 34Q     -0.089900
      6 C7          3.6540   -1.4740    3.3380 c3        1 34Q      0.084000
      7 C8          4.9960   -2.1500    3.6660 c3        1 34Q     -0.089900
      8 C10        -0.8630   -0.8920    0.1660 c         1 34Q      0.576600
      9 C13        -4.9070   -0.4990   -0.9610 ca        1 34Q      0.313300
     10 C15        -5.3710    0.8470    1.0640 ca        1 34Q     -0.165300
     11 C17        -2.3080   -0.6670   -0.1580 ca        1 34Q      0.249500
     12 O2         -0.2690   -1.8860   -0.2870 o         1 34Q     -0.546100
     13 C18        -2.7840   -1.3030   -1.3750 ca        1 34Q      0.341900
     14 N5         -4.0390   -1.2160   -1.7660 nb        1 34Q     -0.603000
     15 C14        -4.4390    0.1260    0.2530 ca        1 34Q      0.275300
     16 N4         -3.1150    0.0290    0.6330 nb        1 34Q     -0.631000
     17 C16        -6.6850    0.9420    0.6820 ca        1 34Q     -0.107000
     18 C12        -6.2840   -0.3700   -1.3190 ca        1 34Q     -0.156300
     19 C11        -7.1420    0.3340   -0.5120 ca        1 34Q     -0.099000
     20 C1          1.2430   -0.2940    1.2740 c3        1 34Q      0.064000
     21 C2          1.5610    0.4720    2.5780 c3        1 34Q     -0.175700
     22 C3          0.5220    1.6240    2.5910 c3        1 34Q      0.116500
     23 C9         -0.6930    0.9860    1.8390 c3        1 34Q      0.073000
     24 O1          3.4010    2.0370    2.4200 o         1 34Q     -0.686100
     25 N2          3.9420   -0.0920    2.9940 n         1 34Q     -0.427800
     26 HN3         1.7970    3.2580    2.3870 hn        1 34Q      0.471467
     27 HN3A        1.2790    2.6240    0.9390 hn        1 34Q      0.471467
     28 H6          6.6200   -0.9220    4.4730 hc        1 34Q      0.071700
     29 H6A         6.8280   -1.3880    2.7390 hc        1 34Q      0.071700
     30 H7          2.9630   -1.5120    4.2260 h1        1 34Q      0.061950
     31 H7A         3.1500   -1.9870    2.4740 h1        1 34Q      0.061950
     32 H8          4.9780   -2.5530    4.7090 hc        1 34Q      0.071700
     33 H8A         5.1730   -3.0060    2.9700 hc        1 34Q      0.071700
     34 H15        -5.0210    1.3160    1.9970 ha        1 34Q      0.146000
     35 H18        -2.0810   -1.8920   -1.9960 h4        1 34Q      0.066100
     36 H16        -7.4050    1.4940    1.3060 ha        1 34Q      0.152000
     37 H12        -6.6410   -0.8480   -2.2480 ha        1 34Q      0.170000
     38 H11        -8.2060    0.4320   -0.7850 ha        1 34Q      0.156000
     39 H1          1.9390    0.0140    0.4450 h1        1 34Q      0.090700
     40 H1A         1.3510   -1.4060    1.4220 h1        1 34Q      0.090700
     41 H2          1.3020   -0.1780    3.4640 hc        1 34Q      0.114700
     42 H3          0.2430    1.9140    3.6420 hx        1 34Q      0.122700
     43 H9         -1.3150    1.7560    1.3070 h1        1 34Q      0.092700
     44 H9A        -1.3420    0.4760    2.6070 h1        1 34Q      0.092700
     45 H5          5.5310    1.0370    3.8190 h1        1 34Q      0.061950
     46 H33         0.2170    3.5440    1.8500 hn        1 34Q      0.471467
     47 H5A         5.7310    0.5620    2.0750 h1        1 34Q      0.061950
@<TRIPOS>BOND
     1    1    8 1   
     2    1   20 1   
     3    1   23 1   
     4    2   22 1   
     5    2   26 1   
     6    2   27 1   
     7    2   46 1   
     8    3   21 1   
     9    3   24 2   
    10    3   25 1   
    11    4    5 1   
    12    4   25 1   
    13    4   45 1   
    14    4   47 1   
    15    5    7 1   
    16    5   28 1   
    17    5   29 1   
    18    6    7 1   
    19    6   25 1   
    20    6   30 1   
    21    6   31 1   
    22    7   32 1   
    23    7   33 1   
    24    8   11 1   
    25    8   12 2   
    26    9   14 ar  
    27    9   15 ar  
    28    9   18 ar  
    29   10   15 ar  
    30   10   17 ar  
    31   10   34 1   
    32   11   13 ar  
    33   11   16 ar  
    34   13   14 ar  
    35   13   35 1   
    36   15   16 ar  
    37   17   19 ar  
    38   17   36 1   
    39   18   19 ar  
    40   18   37 1   
    41   19   38 1   
    42   20   21 1   
    43   20   39 1   
    44   20   40 1   
    45   21   22 1   
    46   21   41 1   
    47   22   23 1   
    48   22   42 1   
    49   23   43 1   
    50   23   44 1   
@<TRIPOS>SUBSTRUCTURE
     1 34Q         1 TEMP              0 ****  ****    0 ROOT
