@<TRIPOS>MOLECULE
34Q
   47    50     1     0     0
SMALL
bcc


@<TRIPOS>ATOM
      1 N1         -0.1140    0.0590    0.8910 n         1 34Q     -0.474800
      2 N3          0.9880    2.8630    1.8970 n4        1 34Q     -0.837600
      3 C4          3.0360    0.8540    2.6720 c         1 34Q      0.668100
      4 C5          5.3730    0.1990    3.0930 c3        1 34Q      0.084000
      5 C6          6.0780   -1.0930    3.5260 c3        1 34Q     -0.089900
      6 C7          3.6550   -1.4780    3.3510 c3        1 34Q      0.084000
      7 C8          4.9950   -2.1570    3.6810 c3        1 34Q     -0.089900
      8 C10        -0.8550   -0.8890    0.1700 c         1 34Q      0.576600
      9 C13        -4.8970   -0.4880   -0.9660 ca        1 34Q      0.313300
     10 C15        -5.3610    0.8600    1.0580 ca        1 34Q     -0.165300
     11 C17        -2.2990   -0.6610   -0.1570 ca        1 34Q      0.249500
     12 O2         -0.2630   -1.8840   -0.2810 o         1 34Q     -0.546100
     13 C18        -2.7740   -1.2970   -1.3750 ca        1 34Q      0.341900
     14 N5         -4.0290   -1.2080   -1.7680 nb        1 34Q     -0.603000
     15 C14        -4.4300    0.1370    0.2490 ca        1 34Q      0.275300
     16 N4         -3.1070    0.0370    0.6320 nb        1 34Q     -0.631000
     17 C16        -6.6740    0.9570    0.6730 ca        1 34Q     -0.107000
     18 C12        -6.2720   -0.3570   -1.3270 ca        1 34Q     -0.156300
     19 C11        -7.1300    0.3490   -0.5210 ca        1 34Q     -0.099000
     20 C1          1.2490   -0.2940    1.2810 c3        1 34Q      0.064000
     21 C2          1.5670    0.4720    2.5860 c3        1 34Q     -0.175700
     22 C3          0.5300    1.6250    2.5960 c3        1 34Q      0.116500
     23 C9         -0.6850    0.9890    1.8420 c3        1 34Q      0.073000
     24 O1          3.4100    2.0330    2.4310 o         1 34Q     -0.686100
     25 N2          3.9460   -0.0970    3.0060 n         1 34Q     -0.427800
     26 HN3         0.2300    3.5460    1.8550 hn        1 34Q      0.471467
     27 HN3A        1.2920    2.6240    0.9450 hn        1 34Q      0.471467
     28 H6          6.6200   -0.9320    4.4910 hc        1 34Q      0.071700
     29 H6A         6.8300   -1.3980    2.7580 hc        1 34Q      0.071700
     30 H7          3.1510   -1.9900    2.4860 h1        1 34Q      0.061950
     31 H7A         2.9630   -1.5140    4.2370 h1        1 34Q      0.061950
     32 H8          5.1720   -3.0130    2.9850 hc        1 34Q      0.071700
     33 H8A         4.9740   -2.5600    4.7240 hc        1 34Q      0.071700
     34 H15        -5.0130    1.3280    1.9910 ha        1 34Q      0.146000
     35 H18        -2.0710   -1.8870   -1.9940 h4        1 34Q      0.066100
     36 H16        -7.3950    1.5110    1.2960 ha        1 34Q      0.152000
     37 H12        -6.6280   -0.8340   -2.2550 ha        1 34Q      0.170000
     38 H11        -8.1930    0.4490   -0.7970 ha        1 34Q      0.156000
     39 H1          1.3550   -1.4060    1.4300 h1        1 34Q      0.090700
     40 H1A         1.9480    0.0120    0.4540 h1        1 34Q      0.090700
     41 H2          1.3060   -0.1770    3.4720 hc        1 34Q      0.114700
     42 H3          0.2500    1.9170    3.6470 hx        1 34Q      0.122700
     43 H9         -1.3050    1.7600    1.3090 h1        1 34Q      0.092700
     44 H9A        -1.3360    0.4810    2.6100 h1        1 34Q      0.092700
     45 H5          5.7380    0.5540    2.0900 h1        1 34Q      0.061950
     46 H33         1.8080    3.2570    2.3950 hn        1 34Q      0.471467
     47 H5A         5.5360    1.0290    3.8340 h1        1 34Q      0.061950
@<TRIPOS>BOND
     1    1    8 1   
     2    1   20 1   
     3    1   23 1   
     4    2   22 1   
     5    2   26 1   
     6    2   27 1   
     7    2   46 1   
     8    3   21 1   
     9    3   24 2   
    10    3   25 1   
    11    4    5 1   
    12    4   25 1   
    13    4   45 1   
    14    4   47 1   
    15    5    7 1   
    16    5   28 1   
    17    5   29 1   
    18    6    7 1   
    19    6   25 1   
    20    6   30 1   
    21    6   31 1   
    22    7   32 1   
    23    7   33 1   
    24    8   11 1   
    25    8   12 2   
    26    9   14 ar  
    27    9   15 ar  
    28    9   18 ar  
    29   10   15 ar  
    30   10   17 ar  
    31   10   34 1   
    32   11   13 ar  
    33   11   16 ar  
    34   13   14 ar  
    35   13   35 1   
    36   15   16 ar  
    37   17   19 ar  
    38   17   36 1   
    39   18   19 ar  
    40   18   37 1   
    41   19   38 1   
    42   20   21 1   
    43   20   39 1   
    44   20   40 1   
    45   21   22 1   
    46   21   41 1   
    47   22   23 1   
    48   22   42 1   
    49   23   43 1   
    50   23   44 1   
@<TRIPOS>SUBSTRUCTURE
     1 34Q         1 TEMP              0 ****  ****    0 ROOT
