@<TRIPOS>MOLECULE
34Q
   46    49     1     0     0
SMALL
bcc


@<TRIPOS>ATOM
      1 N1          0.0690    0.2440   -0.4600 n         1 34Q     -0.460800
      2 N3          1.5790   -1.2350    2.1530 n3        1 34Q     -0.896800
      3 C4          3.5670    0.0060    0.4910 c         1 34Q      0.663100
      4 C5          6.0210    0.1940    0.6370 c3        1 34Q      0.086500
      5 C6          7.1720   -0.0200   -0.3580 c3        1 34Q     -0.090900
      6 C7          5.0890   -0.9730   -1.2430 c3        1 34Q      0.086500
      7 C8          6.5900   -0.8000   -1.5320 c3        1 34Q     -0.090900
      8 C10        -0.9550    1.1190   -0.7240 c         1 34Q      0.579600
      9 C13        -5.0090    0.3840    0.2120 ca        1 34Q      0.298300
     10 C15        -4.7650   -1.9760   -0.4820 ca        1 34Q     -0.153300
     11 C17        -2.3750    0.7450   -0.3900 ca        1 34Q      0.268500
     12 O2         -0.7270    2.2300   -1.2480 o         1 34Q     -0.600100
     13 C18        -3.2130    1.8270    0.1050 ca        1 34Q      0.336900
     14 N5         -4.4840    1.6540    0.4020 nb        1 34Q     -0.624000
     15 C14        -4.1850   -0.6850   -0.2900 ca        1 34Q      0.277300
     16 N4         -2.8470   -0.4760   -0.5870 nb        1 34Q     -0.604000
     17 C16        -6.0880   -2.1860   -0.1840 ca        1 34Q     -0.124000
     18 C12        -6.3800    0.1190    0.5090 ca        1 34Q     -0.160300
     19 C11        -6.8960   -1.1380    0.3120 ca        1 34Q     -0.115000
     20 C1          1.4500    0.6320   -0.6970 c3        1 34Q      0.101000
     21 C2          2.3320   -0.5330   -0.2040 c3        1 34Q     -0.193700
     22 C3          1.4150   -1.3870    0.7310 c3        1 34Q      0.176500
     23 C9         -0.0290   -1.0030    0.2650 c3        1 34Q      0.098000
     24 O1          3.4720    0.7530    1.4900 o         1 34Q     -0.616100
     25 N2          4.8190   -0.3820    0.0530 n         1 34Q     -0.464800
     26 HN3         2.5090   -1.4920    2.4260 hn        1 34Q      0.365300
     27 HN3A        1.4190   -0.2850    2.4340 hn        1 34Q      0.365300
     28 H5A         5.8640    1.2870    0.8560 h1        1 34Q      0.051950
     29 H6          7.5790    0.9650   -0.6950 hc        1 34Q      0.054950
     30 H6A         8.0030   -0.5870    0.1280 hc        1 34Q      0.054950
     31 H7          4.4780   -0.4770   -2.0470 h1        1 34Q      0.051950
     32 H7A         4.8140   -2.0640   -1.2180 h1        1 34Q      0.051950
     33 H8          6.7370   -0.2500   -2.4930 hc        1 34Q      0.054950
     34 H8A         7.0800   -1.8000   -1.6300 hc        1 34Q      0.054950
     35 H15        -4.1360   -2.7940   -0.8690 ha        1 34Q      0.152000
     36 H18        -2.7770    2.8370    0.2260 h4        1 34Q      0.057100
     37 H16        -6.5370   -3.1810   -0.3310 ha        1 34Q      0.140000
     38 H12        -7.0100    0.9360    0.8940 ha        1 34Q      0.156000
     39 H11        -7.9540   -1.3430    0.5400 ha        1 34Q      0.141000
     40 H1          1.6030    0.8190   -1.7940 h1        1 34Q      0.069200
     41 H1A         1.6840    1.5840   -0.1410 h1        1 34Q      0.069200
     42 H2          2.6020   -1.1770   -1.0830 hc        1 34Q      0.073700
     43 H3          1.5880   -2.4750    0.4930 h1        1 34Q      0.069700
     44 H9         -0.7340   -0.9100    1.1350 h1        1 34Q      0.067700
     45 H9A        -0.4110   -1.8090   -0.4210 h1        1 34Q      0.067700
     46 H5          6.2300   -0.3240    1.6130 h1        1 34Q      0.051950
@<TRIPOS>BOND
     1    1    8 1   
     2    1   20 1   
     3    1   23 1   
     4    2   22 1   
     5    2   26 1   
     6    2   27 1   
     7    3   21 1   
     8    3   24 2   
     9    3   25 1   
    10    4    5 1   
    11    4   25 1   
    12    4   28 1   
    13    4   46 1   
    14    5    7 1   
    15    5   29 1   
    16    5   30 1   
    17    6    7 1   
    18    6   25 1   
    19    6   31 1   
    20    6   32 1   
    21    7   33 1   
    22    7   34 1   
    23    8   11 1   
    24    8   12 2   
    25    9   14 ar  
    26    9   15 ar  
    27    9   18 ar  
    28   10   15 ar  
    29   10   17 ar  
    30   10   35 1   
    31   11   13 ar  
    32   11   16 ar  
    33   13   14 ar  
    34   13   36 1   
    35   15   16 ar  
    36   17   19 ar  
    37   17   37 1   
    38   18   19 ar  
    39   18   38 1   
    40   19   39 1   
    41   20   21 1   
    42   20   40 1   
    43   20   41 1   
    44   21   22 1   
    45   21   42 1   
    46   22   23 1   
    47   22   43 1   
    48   23   44 1   
    49   23   45 1   
@<TRIPOS>SUBSTRUCTURE
     1 34Q         1 TEMP              0 ****  ****    0 ROOT
