@<TRIPOS>MOLECULE
34Q
   47    50     1     0     0
SMALL
bcc


@<TRIPOS>ATOM
      1 N1         -0.1220    0.0500    0.8840 n         1 34Q     -0.474800
      2 N3          0.9900    2.8660    1.8450 nz        1 34Q     -0.837600
      3 C4          3.0330    0.8640    2.6500 c         1 34Q      0.668100
      4 C5          5.3680    0.2080    3.0800 c3        1 34Q      0.084000
      5 C6          6.0690   -1.0800    3.5330 c3        1 34Q     -0.089900
      6 C7          3.6450   -1.4590    3.3660 c3        1 34Q      0.084000
      7 C8          4.9820   -2.1370    3.7060 c3        1 34Q     -0.089900
      8 C10        -0.8660   -0.9060    0.1790 c         1 34Q      0.576600
      9 C13        -4.9070   -0.5110   -0.9590 ca        1 34Q      0.313300
     10 C15        -5.3660    0.8710    1.0420 ca        1 34Q     -0.165300
     11 C17        -2.3100   -0.6790   -0.1500 ca        1 34Q      0.249500
     12 O2         -0.2770   -1.9100   -0.2570 o         1 34Q     -0.546100
     13 C18        -2.7880   -1.3330   -1.3570 ca        1 34Q      0.341900
     14 N5         -4.0420   -1.2470   -1.7510 nb        1 34Q     -0.603000
     15 C14        -4.4370    0.1320    0.2450 ca        1 34Q      0.275300
     16 N4         -3.1140    0.0350    0.6280 nb        1 34Q     -0.631000
     17 C16        -6.6790    0.9670    0.6570 ca        1 34Q     -0.107000
     18 C12        -6.2830   -0.3820   -1.3210 ca        1 34Q     -0.156300
     19 C11        -7.1380    0.3410   -0.5260 ca        1 34Q     -0.099000
     20 C1          1.2410   -0.3010    1.2790 c3        1 34Q      0.064000
     21 C2          1.5620    0.4850    2.5710 c3        1 34Q     -0.175700
     22 C3          0.5290    1.6410    2.5640 c3        1 34Q      0.116500
     23 C9         -0.6890    0.9970    1.8210 c3        1 34Q      0.073000
     24 O1          3.4110    2.0370    2.3890 o         1 34Q     -0.686100
     25 N2          3.9400   -0.0850    2.9990 n         1 34Q     -0.427800
     26 HN3         1.2920    2.6120    0.8970 hn        1 34Q      0.471467
     27 HN3A        1.8120    3.2650    2.3360 hn        1 34Q      0.471467
     28 H6          6.8190   -1.3990    2.7680 hc        1 34Q      0.071700
     29 H6A         6.6130   -0.9050    4.4940 hc        1 34Q      0.071700
     30 H7          2.9530   -1.4790    4.2530 h1        1 34Q      0.061950
     31 H7A         3.1380   -1.9840    2.5090 h1        1 34Q      0.061950
     32 H8          4.9620   -2.5240    4.7540 hc        1 34Q      0.071700
     33 H8A         5.1560   -3.0060    3.0230 hc        1 34Q      0.071700
     34 H15        -5.0150    1.3540    1.9670 ha        1 34Q      0.146000
     35 H18        -2.0870   -1.9360   -1.9680 h4        1 34Q      0.066100
     36 H16        -7.3970    1.5330    1.2720 ha        1 34Q      0.152000
     37 H12        -6.6420   -0.8730   -2.2410 ha        1 34Q      0.170000
     38 H11        -8.2010    0.4400   -0.8030 ha        1 34Q      0.156000
     39 H1          1.9400   -0.0090    0.4460 h1        1 34Q      0.090700
     40 H1A         1.3440   -1.4110    1.4450 h1        1 34Q      0.090700
     41 H2          1.3000   -0.1500    3.4670 hc        1 34Q      0.114700
     42 H3          0.2510    1.9500    3.6100 hx        1 34Q      0.122700
     43 H9         -1.3410    0.5030    2.5970 h1        1 34Q      0.092700
     44 H9A        -1.3060    1.7620    1.2760 h1        1 34Q      0.092700
     45 H5          5.7330    0.5450    2.0710 h1        1 34Q      0.061950
     46 H33         0.2350    3.5510    1.7930 hn        1 34Q      0.471467
     47 H5A         5.5340    1.0490    3.8080 h1        1 34Q      0.061950
@<TRIPOS>BOND
     1    1    8 1   
     2    1   20 1   
     3    1   23 1   
     4    2   22 1   
     5    2   26 1   
     6    2   27 1   
     7    2   46 1   
     8    3   21 1   
     9    3   24 2   
    10    3   25 1   
    11    4    5 1   
    12    4   25 1   
    13    4   45 1   
    14    4   47 1   
    15    5    7 1   
    16    5   28 1   
    17    5   29 1   
    18    6    7 1   
    19    6   25 1   
    20    6   30 1   
    21    6   31 1   
    22    7   32 1   
    23    7   33 1   
    24    8   11 1   
    25    8   12 2   
    26    9   14 ar  
    27    9   15 ar  
    28    9   18 ar  
    29   10   15 ar  
    30   10   17 ar  
    31   10   34 1   
    32   11   13 ar  
    33   11   16 ar  
    34   13   14 ar  
    35   13   35 1   
    36   15   16 ar  
    37   17   19 ar  
    38   17   36 1   
    39   18   19 ar  
    40   18   37 1   
    41   19   38 1   
    42   20   21 1   
    43   20   39 1   
    44   20   40 1   
    45   21   22 1   
    46   21   41 1   
    47   22   23 1   
    48   22   42 1   
    49   23   43 1   
    50   23   44 1   
@<TRIPOS>SUBSTRUCTURE
     1 34Q         1 TEMP              0 ****  ****    0 ROOT
