@<TRIPOS>MOLECULE
34R
   67    71     1     0     0
SMALL
bcc


@<TRIPOS>ATOM
      1 O30        -0.2500    0.4560    0.6640 o         1 34R     -0.587100
      2 C16         0.5300    1.4200    0.5670 c         1 34R      0.704300
      3 C15         0.5780    2.5220    1.5580 ce        1 34R     -0.188200
      4 C14         1.0700    2.4190    2.7940 cf        1 34R     -0.039200
      5 C13         1.7010    1.2400    3.3840 ca        1 34R     -0.057800
      6 C10         0.9620    0.3720    4.2040 ca        1 34R      0.095100
      7 O11        -0.3520    0.6830    4.5070 os        1 34R     -0.332900
      8 C12        -1.3050   -0.1950    3.8980 c3        1 34R      0.107700
      9 C07         1.6000   -0.7480    4.7880 ca        1 34R      0.102100
     10 O08         0.7870   -1.5610    5.5520 os        1 34R     -0.316900
     11 C09         1.4080   -2.7010    6.1360 c3        1 34R      0.111700
     12 C06         2.9620   -0.9740    4.5740 ca        1 34R     -0.204000
     13 C05         3.6960   -0.0940    3.7680 ca        1 34R     -0.064300
     14 C04         5.1440   -0.3580    3.5110 c3        1 34R      0.032200
     15 C03         6.0300    0.7730    3.8720 ca        1 34R     -0.422900
     16 C32         6.7690    1.4520    2.8900 ca        1 34R      0.489200
     17 N33         7.6250    2.4510    3.1370 nb        1 34R     -0.779000
     18 C34         7.7680    2.8080    4.4770 ca        1 34R      0.895900
     19 N35         8.7320    3.7710    4.7920 nh        1 34R     -0.928500
     20 N36         7.0640    2.2500    5.5280 nb        1 34R     -0.819000
     21 C02         6.2170    1.2160    5.2260 ca        1 34R      0.712200
     22 N01         5.5750    0.5560    6.2700 nh        1 34R     -0.934500
     23 C31         3.0650    1.0020    3.1780 ca        1 34R     -0.125000
     24 N17         1.3720    1.5040   -0.5730 n         1 34R     -0.245800
     25 N18         2.1530    2.5800   -0.7420 n2        1 34R     -0.430300
     26 C19         2.6740    2.8390   -1.9130 ce        1 34R      0.373800
     27 C22         2.4330    2.0460   -3.1150 ca        1 34R     -0.159900
     28 C40         2.8390    2.4560   -4.3870 ca        1 34R     -0.102000
     29 C38         2.5120    1.6800   -5.4980 ca        1 34R     -0.129000
     30 C37         1.7770    0.5040   -5.3420 ca        1 34R     -0.117000
     31 C23         1.3710    0.0870   -4.0730 ca        1 34R     -0.112000
     32 C21         1.7070    0.8510   -2.9540 ca        1 34R     -0.079300
     33 C20         1.3050    0.4030   -1.5670 c3        1 34R      0.182300
     34 C24         2.1450   -0.7820   -1.1430 ca        1 34R     -0.109300
     35 C25         1.5390   -1.8220   -0.4290 ca        1 34R     -0.104500
     36 C26         2.2850   -2.9360   -0.0490 ca        1 34R     -0.138500
     37 C27         3.6410   -3.0140   -0.3710 ca        1 34R     -0.122000
     38 C28         4.2500   -1.9720   -1.0680 ca        1 34R     -0.138500
     39 C29         3.5060   -0.8570   -1.4510 ca        1 34R     -0.104500
     40 H1          0.1410    3.4670    1.1930 ha        1 34R      0.156000
     41 H2          1.0090    3.2850    3.4800 ha        1 34R      0.146000
     42 H3         -1.1630   -1.2360    4.2760 h1        1 34R      0.050367
     43 H4         -1.2080   -0.1580    2.7850 h1        1 34R      0.050367
     44 H5         -2.2880    0.2210    4.2310 h1        1 34R      0.050367
     45 H6          1.8150   -3.3780    5.3460 h1        1 34R      0.044700
     46 H7          2.2150   -2.3930    6.8430 h1        1 34R      0.044700
     47 H8          0.5690   -3.1970    6.6880 h1        1 34R      0.044700
     48 H9          3.4630   -1.8440    5.0220 ha        1 34R      0.140000
     49 H10         5.2630   -0.5920    2.4150 hc        1 34R      0.059200
     50 H11         5.4700   -1.2760    4.0750 hc        1 34R      0.059200
     51 H12         6.6660    1.1750    1.8230 h4        1 34R      0.023100
     52 H13         8.6650    4.1960    5.6870 hn        1 34R      0.425800
     53 H14         9.0360    4.3540    4.0480 hn        1 34R      0.425800
     54 H15         4.7150    0.1180    6.0240 hn        1 34R      0.419300
     55 H16         5.5910    0.9940    7.1630 hn        1 34R      0.419300
     56 H17         3.6460    1.6860    2.5410 ha        1 34R      0.150000
     57 H18         3.3210    3.7320   -1.9730 h4        1 34R      0.042800
     58 H19         3.4090    3.3890   -4.5070 ha        1 34R      0.138000
     59 H20         2.8320    1.9980   -6.5010 ha        1 34R      0.136000
     60 H21         1.5160   -0.1010   -6.2230 ha        1 34R      0.137000
     61 H22         0.7960   -0.8430   -3.9530 ha        1 34R      0.143000
     62 H23         0.2190    0.0710   -1.6020 h1        1 34R      0.093700
     63 H24         0.4740   -1.7440   -0.1520 ha        1 34R      0.145500
     64 H25         1.8040   -3.7520    0.5090 ha        1 34R      0.131500
     65 H26         4.2280   -3.8950   -0.0720 ha        1 34R      0.130000
     66 H27         5.3200   -2.0280   -1.3180 ha        1 34R      0.131500
     67 H28         3.9890   -0.0350   -2.0030 ha        1 34R      0.145500
@<TRIPOS>BOND
     1    1    2 2   
     2    2    3 1   
     3    2   24 1   
     4    3    4 2   
     5    3   40 1   
     6    4    5 1   
     7    4   41 1   
     8    5    6 ar  
     9    5   23 ar  
    10    6    7 1   
    11    6    9 ar  
    12    7    8 1   
    13    8   42 1   
    14    8   43 1   
    15    8   44 1   
    16    9   10 1   
    17    9   12 ar  
    18   10   11 1   
    19   11   45 1   
    20   11   46 1   
    21   11   47 1   
    22   12   13 ar  
    23   12   48 1   
    24   13   14 1   
    25   13   23 ar  
    26   14   15 1   
    27   14   49 1   
    28   14   50 1   
    29   15   16 ar  
    30   15   21 ar  
    31   16   17 ar  
    32   16   51 1   
    33   17   18 ar  
    34   18   19 1   
    35   18   20 ar  
    36   19   52 1   
    37   19   53 1   
    38   20   21 ar  
    39   21   22 1   
    40   22   54 1   
    41   22   55 1   
    42   23   56 1   
    43   24   25 1   
    44   24   33 1   
    45   25   26 2   
    46   26   27 1   
    47   26   57 1   
    48   27   28 ar  
    49   27   32 ar  
    50   28   29 ar  
    51   28   58 1   
    52   29   30 ar  
    53   29   59 1   
    54   30   31 ar  
    55   30   60 1   
    56   31   32 ar  
    57   31   61 1   
    58   32   33 1   
    59   33   34 1   
    60   33   62 1   
    61   34   35 ar  
    62   34   39 ar  
    63   35   36 ar  
    64   35   63 1   
    65   36   37 ar  
    66   36   64 1   
    67   37   38 ar  
    68   37   65 1   
    69   38   39 ar  
    70   38   66 1   
    71   39   67 1   
@<TRIPOS>SUBSTRUCTURE
     1 34R         1 TEMP              0 ****  ****    0 ROOT
