@<TRIPOS>MOLECULE
34R
   67    71     1     0     0
SMALL
bcc


@<TRIPOS>ATOM
      1 O30        -2.2350   -1.8830    1.0920 o         1 34R     -0.594100
      2 C16        -1.7580   -0.9150    0.4690 c         1 34R      0.698300
      3 C15        -0.3640   -0.9000   -0.0300 ce        1 34R     -0.208200
      4 C14         0.5640   -1.6760    0.5510 cf        1 34R     -0.036200
      5 C13         1.9540   -1.7480    0.1300 ca        1 34R     -0.051800
      6 C10         2.7320   -2.8640    0.5010 ca        1 34R      0.092100
      7 O11         2.1820   -3.7980    1.3600 os        1 34R     -0.329900
      8 C12         2.0150   -5.0990    0.7920 c3        1 34R      0.115700
      9 C07         4.0820   -2.9480    0.0880 ca        1 34R      0.097100
     10 O08         4.7550   -4.0900    0.4780 os        1 34R     -0.320900
     11 C09         6.1180   -4.1850    0.0820 c3        1 34R      0.111700
     12 C06         4.6540   -1.9200   -0.6670 ca        1 34R     -0.197000
     13 C05         3.8850   -0.8030   -1.0170 ca        1 34R     -0.069300
     14 C04         4.4930    0.2840   -1.8420 c3        1 34R      0.033200
     15 C03         4.3930    1.6280   -1.2280 ca        1 34R     -0.427900
     16 C32         3.6410    2.6460   -1.8390 ca        1 34R      0.490200
     17 N33         3.5390    3.8970   -1.3760 nb        1 34R     -0.778000
     18 C34         4.2500    4.1710   -0.2080 ca        1 34R      0.898900
     19 N35         4.2590    5.4910    0.2500 nh        1 34R     -0.929500
     20 N36         4.9870    3.2460    0.5090 nb        1 34R     -0.818000
     21 C02         5.0780    1.9850   -0.0180 ca        1 34R      0.714200
     22 N01         5.9020    1.0580    0.6170 nh        1 34R     -0.933500
     23 C31         2.5500   -0.7250   -0.6200 ca        1 34R     -0.125000
     24 N17        -2.5950    0.2090    0.2340 n         1 34R     -0.242800
     25 N18        -2.0850    1.3270   -0.2970 n2        1 34R     -0.432300
     26 C19        -2.7360    2.4580   -0.2100 ce        1 34R      0.372800
     27 C22        -4.0110    2.6230    0.4840 ca        1 34R     -0.157900
     28 C40        -4.5850    3.8730    0.7240 ca        1 34R     -0.103000
     29 C38        -5.7720    3.9570    1.4510 ca        1 34R     -0.129000
     30 C37        -6.3780    2.8000    1.9430 ca        1 34R     -0.118000
     31 C23        -5.8100    1.5490    1.7030 ca        1 34R     -0.112000
     32 C21        -4.6300    1.4540    0.9630 ca        1 34R     -0.078300
     33 C20        -4.0130    0.1070    0.6680 c3        1 34R      0.182300
     34 C24        -4.8470   -0.6350   -0.3530 ca        1 34R     -0.109300
     35 C25        -5.0410   -2.0130   -0.1990 ca        1 34R     -0.104500
     36 C26        -5.8200   -2.7150   -1.1170 ca        1 34R     -0.137500
     37 C27        -6.4010   -2.0500   -2.1970 ca        1 34R     -0.121000
     38 C28        -6.1970   -0.6800   -2.3610 ca        1 34R     -0.137500
     39 C29        -5.4190    0.0260   -1.4430 ca        1 34R     -0.104500
     40 H1         -0.1410   -0.2530   -0.8920 ha        1 34R      0.159000
     41 H2          0.2940   -2.3350    1.4010 ha        1 34R      0.166000
     42 H3          1.5550   -5.6870    1.6250 h1        1 34R      0.046700
     43 H4          1.3290   -5.0510   -0.0880 h1        1 34R      0.046700
     44 H5          3.0030   -5.5280    0.4980 h1        1 34R      0.046700
     45 H6          6.4430   -5.1670    0.5110 h1        1 34R      0.046367
     46 H7          6.2070   -4.1910   -1.0310 h1        1 34R      0.046367
     47 H8          6.7160   -3.3490    0.5190 h1        1 34R      0.046367
     48 H9          5.7020   -1.9820   -0.9940 ha        1 34R      0.143000
     49 H10         5.5760    0.0500   -2.0420 hc        1 34R      0.057700
     50 H11         3.9740    0.2900   -2.8420 hc        1 34R      0.057700
     51 H12         3.0760    2.4420   -2.7690 h4        1 34R      0.022100
     52 H13         3.5410    6.0860   -0.0910 hn        1 34R      0.427300
     53 H14         4.5530    5.6410    1.1870 hn        1 34R      0.427300
     54 H15         6.2180    1.2850    1.5320 hn        1 34R      0.418800
     55 H16         5.6470    0.1060    0.4770 hn        1 34R      0.418800
     56 H17         1.9610    0.1650   -0.8950 ha        1 34R      0.149000
     57 H18        -2.2610    3.3320   -0.6870 h4        1 34R      0.042800
     58 H19        -4.0990    4.7840    0.3440 ha        1 34R      0.137000
     59 H20        -6.2290    4.9390    1.6410 ha        1 34R      0.136000
     60 H21        -7.3100    2.8730    2.5220 ha        1 34R      0.136000
     61 H22        -6.2920    0.6380    2.0880 ha        1 34R      0.143000
     62 H23        -4.0110   -0.4980    1.6300 h1        1 34R      0.095700
     63 H24        -4.5580   -2.5400    0.6400 ha        1 34R      0.146000
     64 H25        -5.9720   -3.7970   -0.9900 ha        1 34R      0.132000
     65 H26        -7.0150   -2.6050   -2.9200 ha        1 34R      0.130000
     66 H27        -6.6470   -0.1540   -3.2150 ha        1 34R      0.132000
     67 H28        -5.2590    1.1080   -1.5740 ha        1 34R      0.146000
@<TRIPOS>BOND
     1    1    2 2   
     2    2    3 1   
     3    2   24 1   
     4    3    4 2   
     5    3   40 1   
     6    4    5 1   
     7    4   41 1   
     8    5    6 ar  
     9    5   23 ar  
    10    6    7 1   
    11    6    9 ar  
    12    7    8 1   
    13    8   42 1   
    14    8   43 1   
    15    8   44 1   
    16    9   10 1   
    17    9   12 ar  
    18   10   11 1   
    19   11   45 1   
    20   11   46 1   
    21   11   47 1   
    22   12   13 ar  
    23   12   48 1   
    24   13   14 1   
    25   13   23 ar  
    26   14   15 1   
    27   14   49 1   
    28   14   50 1   
    29   15   16 ar  
    30   15   21 ar  
    31   16   17 ar  
    32   16   51 1   
    33   17   18 ar  
    34   18   19 1   
    35   18   20 ar  
    36   19   52 1   
    37   19   53 1   
    38   20   21 ar  
    39   21   22 1   
    40   22   54 1   
    41   22   55 1   
    42   23   56 1   
    43   24   25 1   
    44   24   33 1   
    45   25   26 2   
    46   26   27 1   
    47   26   57 1   
    48   27   28 ar  
    49   27   32 ar  
    50   28   29 ar  
    51   28   58 1   
    52   29   30 ar  
    53   29   59 1   
    54   30   31 ar  
    55   30   60 1   
    56   31   32 ar  
    57   31   61 1   
    58   32   33 1   
    59   33   34 1   
    60   33   62 1   
    61   34   35 ar  
    62   34   39 ar  
    63   35   36 ar  
    64   35   63 1   
    65   36   37 ar  
    66   36   64 1   
    67   37   38 ar  
    68   37   65 1   
    69   38   39 ar  
    70   38   66 1   
    71   39   67 1   
@<TRIPOS>SUBSTRUCTURE
     1 34R         1 TEMP              0 ****  ****    0 ROOT
