@<TRIPOS>MOLECULE
34R
   67    71     1     0     0
SMALL
bcc


@<TRIPOS>ATOM
      1 O30        -0.2350    0.4340    0.6230 o         1 34R     -0.587100
      2 C16         0.5400    1.4020    0.5340 c         1 34R      0.704300
      3 C15         0.5690    2.5060    1.5250 ce        1 34R     -0.188200
      4 C14         1.0440    2.4070    2.7670 cf        1 34R     -0.039200
      5 C13         1.6720    1.2330    3.3690 ca        1 34R     -0.056800
      6 C10         0.9250    0.3610    4.1770 ca        1 34R      0.096100
      7 O11        -0.3960    0.6630    4.4590 os        1 34R     -0.332900
      8 C12        -1.3330   -0.2210    3.8370 c3        1 34R      0.107700
      9 C07         1.5610   -0.7540    4.7740 ca        1 34R      0.102100
     10 O08         0.7400   -1.5720    5.5250 os        1 34R     -0.316900
     11 C09         1.3590   -2.7040    6.1250 c3        1 34R      0.111700
     12 C06         2.9270   -0.9710    4.5830 ca        1 34R     -0.204000
     13 C05         3.6690   -0.0880    3.7880 ca        1 34R     -0.065300
     14 C04         5.1220   -0.3430    3.5560 c3        1 34R      0.032200
     15 C03         5.9950    0.7980    3.9190 ca        1 34R     -0.421900
     16 C32         6.7660    1.4540    2.9450 ca        1 34R      0.488200
     17 N33         7.6030    2.4680    3.1940 nb        1 34R     -0.778000
     18 C34         7.6690    2.8850    4.5220 ca        1 34R      0.894900
     19 N35         8.4460    4.0140    4.8090 nv        1 34R     -0.928500
     20 N36         6.9760    2.3120    5.5720 nb        1 34R     -0.817000
     21 C02         6.1450    1.2660    5.2680 ca        1 34R      0.710200
     22 N01         5.4970    0.6090    6.3110 nv        1 34R     -0.932500
     23 C31         3.0410    1.0030    3.1870 ca        1 34R     -0.124000
     24 N17         1.3960    1.4890   -0.5950 n         1 34R     -0.245800
     25 N18         2.1750    2.5690   -0.7530 n2        1 34R     -0.429300
     26 C19         2.7090    2.8300   -1.9180 ce        1 34R      0.373800
     27 C22         2.4860    2.0360   -3.1230 ca        1 34R     -0.158900
     28 C40         2.9050    2.4480   -4.3900 ca        1 34R     -0.102000
     29 C38         2.5950    1.6700   -5.5050 ca        1 34R     -0.129000
     30 C37         1.8640    0.4910   -5.3570 ca        1 34R     -0.118000
     31 C23         1.4450    0.0730   -4.0940 ca        1 34R     -0.112000
     32 C21         1.7640    0.8370   -2.9710 ca        1 34R     -0.080300
     33 C20         1.3470    0.3880   -1.5890 c3        1 34R      0.182300
     34 C24         2.1880   -0.7930   -1.1540 ca        1 34R     -0.108300
     35 C25         1.5780   -1.8350   -0.4460 ca        1 34R     -0.104500
     36 C26         2.3260   -2.9460   -0.0570 ca        1 34R     -0.138500
     37 C27         3.6850   -3.0180   -0.3640 ca        1 34R     -0.122000
     38 C28         4.2980   -1.9730   -1.0550 ca        1 34R     -0.138500
     39 C29         3.5530   -0.8610   -1.4470 ca        1 34R     -0.104500
     40 H1          0.1340    3.4480    1.1520 ha        1 34R      0.156000
     41 H2          0.9710    3.2750    3.4510 ha        1 34R      0.146000
     42 H3         -1.2190   -0.1860    2.7250 h1        1 34R      0.050367
     43 H4         -1.1910   -1.2610    4.2190 h1        1 34R      0.050367
     44 H5         -2.3240    0.1880    4.1530 h1        1 34R      0.050367
     45 H6          1.7860   -3.3820    5.3460 h1        1 34R      0.044700
     46 H7          0.5150   -3.2040    6.6650 h1        1 34R      0.044700
     47 H8          2.1520   -2.3860    6.8450 h1        1 34R      0.044700
     48 H9          3.4260   -1.8370    5.0410 ha        1 34R      0.140000
     49 H10         5.2600   -0.5870    2.4650 hc        1 34R      0.058700
     50 H11         5.4460   -1.2530    4.1350 hc        1 34R      0.058700
     51 H12         6.7120    1.1380    1.8850 h4        1 34R      0.023100
     52 H13         8.6960    4.1540    5.7600 hn        1 34R      0.425300
     53 H14         9.1290    4.2630    4.1320 hn        1 34R      0.425300
     54 H15         4.6480    0.1540    6.0530 hn        1 34R      0.418300
     55 H16         5.4800    1.0680    7.1940 hn        1 34R      0.418300
     56 H17         3.6280    1.6910    2.5590 ha        1 34R      0.151000
     57 H18         3.3520    3.7260   -1.9700 h4        1 34R      0.043800
     58 H19         3.4720    3.3840   -4.5030 ha        1 34R      0.138000
     59 H20         2.9260    1.9900   -6.5040 ha        1 34R      0.136000
     60 H21         1.6150   -0.1150   -6.2420 ha        1 34R      0.137000
     61 H22         0.8720   -0.8600   -3.9800 ha        1 34R      0.143000
     62 H23         0.2640    0.0500   -1.6370 h1        1 34R      0.093700
     63 H24         0.5100   -1.7620   -0.1810 ha        1 34R      0.146000
     64 H25         1.8410   -3.7630    0.4960 ha        1 34R      0.131500
     65 H26         4.2720   -3.8960   -0.0580 ha        1 34R      0.129000
     66 H27         5.3700   -2.0240   -1.2930 ha        1 34R      0.131500
     67 H28         4.0380   -0.0380   -1.9940 ha        1 34R      0.146000
@<TRIPOS>BOND
     1    1    2 2   
     2    2    3 1   
     3    2   24 1   
     4    3    4 2   
     5    3   40 1   
     6    4    5 1   
     7    4   41 1   
     8    5    6 ar  
     9    5   23 ar  
    10    6    7 1   
    11    6    9 ar  
    12    7    8 1   
    13    8   42 1   
    14    8   43 1   
    15    8   44 1   
    16    9   10 1   
    17    9   12 ar  
    18   10   11 1   
    19   11   45 1   
    20   11   46 1   
    21   11   47 1   
    22   12   13 ar  
    23   12   48 1   
    24   13   14 1   
    25   13   23 ar  
    26   14   15 1   
    27   14   49 1   
    28   14   50 1   
    29   15   16 ar  
    30   15   21 ar  
    31   16   17 ar  
    32   16   51 1   
    33   17   18 ar  
    34   18   19 1   
    35   18   20 ar  
    36   19   52 1   
    37   19   53 1   
    38   20   21 ar  
    39   21   22 1   
    40   22   54 1   
    41   22   55 1   
    42   23   56 1   
    43   24   25 1   
    44   24   33 1   
    45   25   26 2   
    46   26   27 1   
    47   26   57 1   
    48   27   28 ar  
    49   27   32 ar  
    50   28   29 ar  
    51   28   58 1   
    52   29   30 ar  
    53   29   59 1   
    54   30   31 ar  
    55   30   60 1   
    56   31   32 ar  
    57   31   61 1   
    58   32   33 1   
    59   33   34 1   
    60   33   62 1   
    61   34   35 ar  
    62   34   39 ar  
    63   35   36 ar  
    64   35   63 1   
    65   36   37 ar  
    66   36   64 1   
    67   37   38 ar  
    68   37   65 1   
    69   38   39 ar  
    70   38   66 1   
    71   39   67 1   
@<TRIPOS>SUBSTRUCTURE
     1 34R         1 TEMP              0 ****  ****    0 ROOT
