@<TRIPOS>MOLECULE
34R
   69    73     1     0     0
SMALL
bcc


@<TRIPOS>ATOM
      1 O30         0.3390   -0.2680    0.4690 o         1 34R     -0.558100
      2 C16         0.6830    0.9230    0.5390 c         1 34R      0.662300
      3 C15         0.0520    1.8770    1.4880 ce        1 34R     -0.138200
      4 C14         0.1410    1.8200    2.8200 cf        1 34R     -0.094200
      5 C13         0.9230    0.8610    3.5890 ca        1 34R     -0.055800
      6 C10         0.4030    0.3410    4.8020 ca        1 34R      0.167100
      7 O11        -0.7700    0.8970    5.2180 os        1 34R     -0.308900
      8 C12        -1.6140    0.1420    6.0980 c3        1 34R      0.118700
      9 C07         1.1530   -0.6350    5.5130 ca        1 34R      0.070100
     10 O08         0.6230   -1.0770    6.7040 os        1 34R     -0.321900
     11 C09         0.9940   -2.3970    7.1130 c3        1 34R      0.104700
     12 C06         2.3940   -1.0640    5.0350 ca        1 34R     -0.189000
     13 C05         2.9120   -0.5220    3.8520 ca        1 34R     -0.199300
     14 C04         4.1910   -1.0220    3.2850 c3        1 34R     -0.028800
     15 C03         5.2870   -0.0260    3.2210 ca        1 34R     -0.146900
     16 C32         6.3480   -0.2370    2.2730 ca        1 34R      0.480200
     17 N33         7.4130    0.5550    2.1670 nb        1 34R     -0.610000
     18 C34         7.4470    1.6390    3.0320 ca        1 34R      0.716900
     19 N35         8.6420    2.5230    2.9250 n4        1 34R     -0.813300
     20 N36         6.5040    1.9750    3.9490 nb        1 34R     -0.657000
     21 C02         5.4240    1.1300    4.0260 ca        1 34R      0.492200
     22 N01         4.3710    1.5040    4.9870 n4        1 34R     -0.825300
     23 C31         2.1750    0.4310    3.1430 ca        1 34R     -0.161000
     24 N17         1.7330    1.3860   -0.3040 n         1 34R     -0.244800
     25 N18         2.0450    2.6990   -0.2830 n2        1 34R     -0.493300
     26 C19         2.4540    3.3010   -1.3690 ce        1 34R      0.424800
     27 C22         2.5460    2.6670   -2.6800 ca        1 34R     -0.190900
     28 C40         2.7670    3.3900   -3.8540 ca        1 34R     -0.088000
     29 C38         2.7640    2.7260   -5.0810 ca        1 34R     -0.117000
     30 C37         2.5350    1.3510   -5.1350 ca        1 34R     -0.095000
     31 C23         2.3160    0.6230   -3.9640 ca        1 34R     -0.111000
     32 C21         2.3330    1.2760   -2.7310 ca        1 34R     -0.091300
     33 C20         2.0970    0.5100   -1.4520 c3        1 34R      0.163300
     34 C24         3.2950   -0.3470   -1.0980 ca        1 34R     -0.085300
     35 C25         3.0840   -1.5240   -0.3680 ca        1 34R     -0.116500
     36 C26         4.1550   -2.3650   -0.0690 ca        1 34R     -0.155000
     37 C27         5.4440   -2.0370   -0.4940 ca        1 34R     -0.167000
     38 C28         5.6590   -0.8600   -1.2100 ca        1 34R     -0.155000
     39 C29         4.5890   -0.0130   -1.5070 ca        1 34R     -0.116500
     40 H1         -0.5700    2.6470    0.9950 ha        1 34R      0.179000
     41 H2         -0.4550    2.5230    3.4350 ha        1 34R      0.168000
     42 H3         -2.5900    0.6890    6.0280 h1        1 34R      0.069700
     43 H4         -1.2020    0.1840    7.1360 h1        1 34R      0.069700
     44 H5         -1.7140   -0.9110    5.7480 h1        1 34R      0.069700
     45 H6          0.2630   -2.6230    7.9330 h1        1 34R      0.062367
     46 H7          0.8900   -3.1240    6.2730 h1        1 34R      0.062367
     47 H8          2.0370   -2.3900    7.5110 h1        1 34R      0.062367
     48 H9          2.9380   -1.8600    5.5660 ha        1 34R      0.155000
     49 H10         3.9880   -1.4080    2.2340 hc        1 34R      0.127700
     50 H11         4.5660   -1.9090    3.8770 hc        1 34R      0.127700
     51 H12         6.2930   -1.0900    1.5460 h4        1 34R      0.123100
     52 H13         8.6930    2.9020    1.9660 hn        1 34R      0.497467
     53 H14         8.5850    3.3010    3.5990 hn        1 34R      0.497467
     54 H15         3.5340    1.8110    4.4480 hn        1 34R      0.495133
     55 H16         4.1030    0.6620    5.5300 hn        1 34R      0.495133
     56 H17         2.5570    0.8090    2.1800 ha        1 34R      0.163000
     57 H18         2.7220    4.3690   -1.2670 h4        1 34R      0.045800
     58 H19         2.9250    4.4780   -3.8120 ha        1 34R      0.146000
     59 H20         2.9320    3.2930   -6.0110 ha        1 34R      0.156000
     60 H21         2.5200    0.8340   -6.1090 ha        1 34R      0.157000
     61 H22         2.1290   -0.4610   -4.0150 ha        1 34R      0.152000
     62 H23         1.2210   -0.1950   -1.6320 h1        1 34R      0.112700
     63 H24         2.0590   -1.7920   -0.0550 ha        1 34R      0.162500
     64 H25         3.9740   -3.3130    0.4610 ha        1 34R      0.143000
     65 H26         6.2780   -2.7330   -0.3130 ha        1 34R      0.140000
     66 H27         6.6670   -0.6160   -1.5800 ha        1 34R      0.143000
     67 H28         4.7610    0.9010   -2.0980 ha        1 34R      0.162500
     68 H353        9.4900    1.9660    3.1130 hn        1 34R      0.497467
     69 H013        4.6740    2.2540    5.6220 hn        1 34R      0.495133
@<TRIPOS>BOND
     1    1    2 2   
     2    2    3 1   
     3    2   24 1   
     4    3    4 2   
     5    3   40 1   
     6    4    5 1   
     7    4   41 1   
     8    5    6 ar  
     9    5   23 ar  
    10    6    7 1   
    11    6    9 ar  
    12    7    8 1   
    13    8   42 1   
    14    8   43 1   
    15    8   44 1   
    16    9   10 1   
    17    9   12 ar  
    18   10   11 1   
    19   11   45 1   
    20   11   46 1   
    21   11   47 1   
    22   12   13 ar  
    23   12   48 1   
    24   13   14 1   
    25   13   23 ar  
    26   14   15 1   
    27   14   49 1   
    28   14   50 1   
    29   15   16 ar  
    30   15   21 ar  
    31   16   17 ar  
    32   16   51 1   
    33   17   18 ar  
    34   18   19 1   
    35   18   20 ar  
    36   19   52 1   
    37   19   53 1   
    38   19   68 1   
    39   20   21 ar  
    40   21   22 1   
    41   22   54 1   
    42   22   55 1   
    43   22   69 1   
    44   23   56 1   
    45   24   25 1   
    46   24   33 1   
    47   25   26 2   
    48   26   27 1   
    49   26   57 1   
    50   27   28 ar  
    51   27   32 ar  
    52   28   29 ar  
    53   28   58 1   
    54   29   30 ar  
    55   29   59 1   
    56   30   31 ar  
    57   30   60 1   
    58   31   32 ar  
    59   31   61 1   
    60   32   33 1   
    61   33   34 1   
    62   33   62 1   
    63   34   35 ar  
    64   34   39 ar  
    65   35   36 ar  
    66   35   63 1   
    67   36   37 ar  
    68   36   64 1   
    69   37   38 ar  
    70   37   65 1   
    71   38   39 ar  
    72   38   66 1   
    73   39   67 1   
@<TRIPOS>SUBSTRUCTURE
     1 34R         1 TEMP              0 ****  ****    0 ROOT
