@<TRIPOS>MOLECULE
34R
   67    54     1     0     0
SMALL
bcc


@<TRIPOS>ATOM
      1 O30        -0.8580    0.7860   -0.0880 o         1 34R     -0.355000
      2 C16        -0.2930    1.8620    0.1460 c1        1 34R      0.380000
      3 C15         0.7840    1.9310    1.2050 c1        1 34R     -0.119500
      4 C14         1.3340    0.7670    1.7120 c1        1 34R     -0.119500
      5 C13         0.8490   -0.6060    1.1990 c1        1 34R     -0.045000
      6 C10        -0.4000   -1.1050    1.6220 c1        1 34R      0.043000
      7 O11        -1.2980   -0.2650    2.3320 os        1 34R     -0.212000
      8 C12        -1.2410   -0.4120    3.7390 c3        1 34R     -0.076000
      9 C07        -0.7460   -2.4420    1.3690 c1        1 34R      0.050000
     10 O08        -2.0230   -2.9200    1.7420 os        1 34R     -0.207000
     11 C09        -1.9950   -4.1060    2.4580 c3        1 34R     -0.077000
     12 C06         0.1350   -3.2720    0.7050 c1        1 34R     -0.184000
     13 C05         1.3820   -2.7800    0.2800 c1        1 34R     -0.054000
     14 C04         2.4310   -3.7480   -0.3470 c2        1 34R     -0.057000
     15 C03         3.2700   -4.3280    0.7270 c2        1 34R     -0.285000
     16 C32         2.7160   -4.6360    1.9290 c2        1 34R      0.028000
     17 N33         3.4930   -5.0460    2.9360 n1        1 34R     -0.252000
     18 C34         4.8440   -5.1540    2.7570 c1        1 34R      0.177000
     19 N35         5.6540   -5.6330    3.7990 n2        1 34R     -0.335000
     20 N36         5.3980   -4.8450    1.5560 n1        1 34R     -0.295000
     21 C02         4.6250   -4.4370    0.5510 c1        1 34R      0.187000
     22 N01         5.2000   -4.1630   -0.7180 n2        1 34R     -0.335000
     23 C31         1.7330   -1.4380    0.5330 c1        1 34R     -0.129000
     24 N17        -0.8100    3.0890   -0.4270 n3        1 34R     -0.272000
     25 N18        -0.2320    4.3240   -0.0730 n2        1 34R     -0.003000
     26 C19        -0.9390    5.5460   -0.3270 c1        1 34R     -0.126000
     27 C22        -2.2900    5.5130   -1.0560 c1        1 34R     -0.073000
     28 C40        -3.1350    6.6420   -0.9300 c2        1 34R     -0.102000
     29 C38        -4.4780    6.5390   -1.2440 c1        1 34R     -0.129000
     30 C37        -4.9990    5.3290   -1.6820 c1        1 34R     -0.119500
     31 C23        -4.1700    4.2200   -1.8060 c1        1 34R     -0.119500
     32 C21        -2.8010    4.3240   -1.4870 c1        1 34R     -0.072000
     33 C20        -2.0130    3.0570   -1.2930 c2        1 34R      0.091000
     34 C24        -1.5640    2.5820   -2.6900 c1        1 34R     -0.103000
     35 C25        -1.9060    1.3270   -3.1270 c1        1 34R     -0.119500
     36 C26        -1.5760    0.9200   -4.4290 c1        1 34R     -0.119500
     37 C27        -0.9080    1.7800   -5.2700 c1        1 34R     -0.119500
     38 C28        -0.5550    3.0730   -4.8230 c1        1 34R     -0.119500
     39 C29        -0.8780    3.4690   -3.5510 c1        1 34R     -0.105000
     40 H1          1.1090    2.8470    1.5490 ha        1 34R      0.140750
     41 H2          2.0260    0.8140    2.3950 ha        1 34R      0.140750
     42 H3         -0.5350    0.2190    4.1170 h1        1 34R      0.083667
     43 H4         -2.1050   -0.1960    4.1200 h1        1 34R      0.083667
     44 H5         -1.0000   -1.3650    3.9700 h1        1 34R      0.083667
     45 H6         -2.8200   -4.1950    2.9730 h1        1 34R      0.084333
     46 H7         -1.2630   -4.1020    3.0400 h1        1 34R      0.084333
     47 H8         -1.9150   -4.8540    1.8440 h1        1 34R      0.084333
     48 H9         -0.1170   -4.2370    0.5240 ha        1 34R      0.142000
     49 H10         2.9890   -3.2620   -0.9590 ha        1 34R      0.091000
     50 H11         1.9830   -4.4440   -0.8130 ha        1 34R      0.091000
     51 H12         1.7270   -4.5550    2.0590 h4        1 34R      0.169000
     52 H13         5.2780   -6.0080    4.5230 hn        1 34R      0.218500
     53 H14         6.5950   -5.6160    3.7100 hn        1 34R      0.218500
     54 H15         6.1260   -4.2020   -0.8280 hn        1 34R      0.218500
     55 H16         4.6780   -3.9900   -1.4130 hn        1 34R      0.218500
     56 H17         2.6270   -1.0850    0.2290 ha        1 34R      0.169000
     57 H18        -0.5220    6.4340   -0.0720 ha        1 34R      0.173000
     58 H19        -2.7770    7.4750   -0.6280 ha        1 34R      0.138000
     59 H20        -5.0790    7.3420   -1.1520 ha        1 34R      0.136000
     60 H21        -5.9820    5.2510   -1.9100 ha        1 34R      0.140750
     61 H22        -4.5490    3.3420   -2.1260 ha        1 34R      0.140750
     62 H23        -2.6350    2.3710   -0.9220 h4        1 34R      0.132000
     63 H24        -2.3640    0.7330   -2.5490 ha        1 34R      0.140750
     64 H25        -1.8270    0.0020   -4.7460 ha        1 34R      0.140750
     65 H26        -0.6700    1.4840   -6.2120 ha        1 34R      0.140750
     66 H27        -0.0840    3.6800   -5.4150 ha        1 34R      0.140750
     67 H28        -0.6330    4.3690   -3.2380 ha        1 34R      0.137000
@<TRIPOS>BOND
     1    1    2 1   
     2    2   24 1   
     3    3    4 1   
     4    3   40 1   
     5    4   41 1   
     6    5    6 1   
     7    6    7 1   
     8    7    8 1   
     9    8   42 1   
    10    8   43 1   
    11    8   44 1   
    12    9   10 1   
    13    9   12 1   
    14   10   11 1   
    15   11   45 1   
    16   11   46 1   
    17   11   47 1   
    18   12   48 1   
    19   13   23 1   
    20   14   15 1   
    21   14   49 1   
    22   14   50 1   
    23   15   16 1   
    24   15   21 1   
    25   16   17 1   
    26   16   51 1   
    27   18   20 1   
    28   19   52 1   
    29   19   53 1   
    30   22   54 1   
    31   22   55 1   
    32   23   56 1   
    33   24   25 1   
    34   24   33 1   
    35   25   26 1   
    36   26   57 1   
    37   27   28 1   
    38   27   32 1   
    39   28   29 1   
    40   28   58 1   
    41   29   59 1   
    42   30   31 1   
    43   30   60 1   
    44   31   61 1   
    45   33   34 1   
    46   33   62 1   
    47   34   39 1   
    48   35   36 1   
    49   35   63 1   
    50   36   64 1   
    51   37   38 1   
    52   37   65 1   
    53   38   66 1   
    54   39   67 1   
@<TRIPOS>SUBSTRUCTURE
     1 34R         1 TEMP              0 ****  ****    0 ROOT
