@<TRIPOS>MOLECULE
34S
   67    71     1     0     0
SMALL
bcc


@<TRIPOS>ATOM
      1 O30         2.0280   -1.5480   -1.4000 o         1 34S     -0.594100
      2 C16         1.7170   -0.9480   -0.3540 c         1 34S      0.698300
      3 N17         2.7580   -0.3480    0.4060 n         1 34S     -0.242800
      4 N18         2.4990    0.1720    1.6120 n2        1 34S     -0.432300
      5 C19         3.4720    0.4230    2.4480 ce        1 34S      0.371800
      6 C22         4.8790    0.1350    2.1850 ca        1 34S     -0.157900
      7 C40         5.8690    0.2350    3.1650 ca        1 34S     -0.103000
      8 C38         7.1820   -0.1200    2.8560 ca        1 34S     -0.129000
      9 C37         7.5030   -0.5810    1.5790 ca        1 34S     -0.118000
     10 C23         6.5190   -0.6800    0.5950 ca        1 34S     -0.112000
     11 C21         5.2050   -0.3120    0.8910 ca        1 34S     -0.078300
     12 C20         4.1290   -0.3850   -0.1670 c3        1 34S      0.182300
     13 C24         4.3270    0.7150   -1.1870 ca        1 34S     -0.110300
     14 C25         4.7210    2.0000   -0.8040 ca        1 34S     -0.104500
     15 C26         4.9110    2.9900   -1.7670 ca        1 34S     -0.137500
     16 C27         4.7050    2.7030   -3.1160 ca        1 34S     -0.121000
     17 C28         4.2990    1.4250   -3.5010 ca        1 34S     -0.137500
     18 C29         4.1060    0.4330   -2.5400 ca        1 34S     -0.104500
     19 C15         0.3170   -0.8440    0.1160 ce        1 34S     -0.210200
     20 C14        -0.6080   -1.7000   -0.3490 cf        1 34S     -0.034200
     21 C13        -2.0100   -1.6830    0.0360 ca        1 34S     -0.052800
     22 C10        -2.7940   -2.8380   -0.1610 ca        1 34S      0.092100
     23 O11        -2.2290   -3.9160   -0.8200 os        1 34S     -0.329900
     24 C12        -2.1260   -5.1040   -0.0330 c3        1 34S      0.115700
     25 C07        -4.1600   -2.8320    0.2070 ca        1 34S      0.096100
     26 O08        -4.8410   -4.0150   -0.0050 os        1 34S     -0.321900
     27 C09        -6.2220   -4.0180    0.3370 c3        1 34S      0.111700
     28 C06        -4.7380   -1.6820    0.7510 ca        1 34S     -0.196000
     29 C05        -3.9610   -0.5310    0.9330 ca        1 34S     -0.069300
     30 C04        -4.5770    0.6880    1.5380 c3        1 34S      0.034200
     31 C03        -4.4030    1.9140    0.7260 ca        1 34S     -0.429900
     32 C32        -3.6620    3.0030    1.2140 ca        1 34S      0.490200
     33 N33        -3.4970    4.1620    0.5650 nb        1 34S     -0.777000
     34 C34        -4.1260    4.2560   -0.6760 ca        1 34S      0.898900
     35 N35        -4.0670    5.4840   -1.3410 nh        1 34S     -0.928500
     36 N36        -4.8450    3.2420   -1.2820 nb        1 34S     -0.818000
     37 C02        -5.0040    2.0830   -0.5670 ca        1 34S      0.714200
     38 N01        -5.8150    1.0830   -1.0960 nh        1 34S     -0.933500
     39 C31        -2.6120   -0.5390    0.5780 ca        1 34S     -0.123000
     40 H1          3.1820    0.8670    3.4160 h4        1 34S      0.041800
     41 H2          5.6100    0.5880    4.1740 ha        1 34S      0.137000
     42 H3          7.9650   -0.0410    3.6240 ha        1 34S      0.136000
     43 H4          8.5390   -0.8670    1.3430 ha        1 34S      0.136000
     44 H5          6.7750   -1.0390   -0.4130 ha        1 34S      0.143000
     45 H6          4.2260   -1.3840   -0.7000 h1        1 34S      0.095700
     46 H7          4.8840    2.2280    0.2610 ha        1 34S      0.146000
     47 H8          5.2230    3.9990   -1.4600 ha        1 34S      0.132000
     48 H9          4.8570    3.4850   -3.8740 ha        1 34S      0.130000
     49 H10         4.1260    1.1980   -4.5630 ha        1 34S      0.132000
     50 H11         3.7580   -0.5700   -2.8380 ha        1 34S      0.146000
     51 H12         0.0760   -0.0470    0.8360 ha        1 34S      0.159000
     52 H13        -0.3250   -2.4950   -1.0680 ha        1 34S      0.167000
     53 H14        -1.4910   -4.9200    0.8660 h1        1 34S      0.046367
     54 H15        -3.1390   -5.4650    0.2680 h1        1 34S      0.046367
     55 H16        -1.6340   -5.8310   -0.7270 h1        1 34S      0.046367
     56 H17        -6.3590   -3.8310    1.4290 h1        1 34S      0.046700
     57 H18        -6.7800   -3.2600   -0.2650 h1        1 34S      0.046700
     58 H19        -6.5510   -5.0540    0.0680 h1        1 34S      0.046700
     59 H20        -5.7990   -1.6710    1.0410 ha        1 34S      0.143000
     60 H21        -5.6760    0.5130    1.7100 hc        1 34S      0.057700
     61 H22        -4.1110    0.8420    2.5530 hc        1 34S      0.057700
     62 H23        -3.1610    2.9420    2.1990 h4        1 34S      0.022100
     63 H24        -3.3520    6.1110   -1.0540 hn        1 34S      0.427800
     64 H25        -4.2960    5.4840   -2.3070 hn        1 34S      0.427800
     65 H26        -6.0680    1.1630   -2.0550 hn        1 34S      0.418800
     66 H27        -5.5970    0.1610   -0.7890 hn        1 34S      0.418800
     67 H28        -2.0160    0.3770    0.7170 ha        1 34S      0.149000
@<TRIPOS>BOND
     1    1    2 2   
     2    2    3 1   
     3    2   19 1   
     4    3    4 1   
     5    3   12 1   
     6    4    5 2   
     7    5    6 1   
     8    5   40 1   
     9    6    7 ar  
    10    6   11 ar  
    11    7    8 ar  
    12    7   41 1   
    13    8    9 ar  
    14    8   42 1   
    15    9   10 ar  
    16    9   43 1   
    17   10   11 ar  
    18   10   44 1   
    19   11   12 1   
    20   12   13 1   
    21   12   45 1   
    22   13   14 ar  
    23   13   18 ar  
    24   14   15 ar  
    25   14   46 1   
    26   15   16 ar  
    27   15   47 1   
    28   16   17 ar  
    29   16   48 1   
    30   17   18 ar  
    31   17   49 1   
    32   18   50 1   
    33   19   20 2   
    34   19   51 1   
    35   20   21 1   
    36   20   52 1   
    37   21   22 ar  
    38   21   39 ar  
    39   22   23 1   
    40   22   25 ar  
    41   23   24 1   
    42   24   53 1   
    43   24   54 1   
    44   24   55 1   
    45   25   26 1   
    46   25   28 ar  
    47   26   27 1   
    48   27   56 1   
    49   27   57 1   
    50   27   58 1   
    51   28   29 ar  
    52   28   59 1   
    53   29   30 1   
    54   29   39 ar  
    55   30   31 1   
    56   30   60 1   
    57   30   61 1   
    58   31   32 ar  
    59   31   37 ar  
    60   32   33 ar  
    61   32   62 1   
    62   33   34 ar  
    63   34   35 1   
    64   34   36 ar  
    65   35   63 1   
    66   35   64 1   
    67   36   37 ar  
    68   37   38 1   
    69   38   65 1   
    70   38   66 1   
    71   39   67 1   
@<TRIPOS>SUBSTRUCTURE
     1 34S         1 TEMP              0 ****  ****    0 ROOT
