@<TRIPOS>MOLECULE
34S
   67    71     1     0     0
SMALL
bcc


@<TRIPOS>ATOM
      1 O30         0.1010    0.1660   -0.1280 o         1 34S     -0.577100
      2 C16         0.8680    1.1290   -0.2960 c         1 34S      0.695300
      3 N17         1.8830    1.3620    0.6740 n         1 34S     -0.249800
      4 N18         2.6720    2.4400    0.5620 n2        1 34S     -0.433300
      5 C19         3.3140    2.9000    1.6050 ce        1 34S      0.375800
      6 C22         3.1970    2.3500    2.9520 ca        1 34S     -0.160900
      7 C40         3.7260    2.9850    4.0780 ca        1 34S     -0.102000
      8 C38         3.5110    2.4370    5.3420 ca        1 34S     -0.129000
      9 C37         2.7650    1.2660    5.4820 ca        1 34S     -0.117000
     10 C23         2.2370    0.6250    4.3610 ca        1 34S     -0.112000
     11 C21         2.4610    1.1580    3.0910 ca        1 34S     -0.079300
     12 C20         1.9250    0.4660    1.8590 c3        1 34S      0.179300
     13 C24         2.7280   -0.7840    1.5740 ca        1 34S     -0.111300
     14 C25         4.1070   -0.8340    1.8000 ca        1 34S     -0.110000
     15 C26         4.8160   -2.0080    1.5500 ca        1 34S     -0.138000
     16 C27         4.1530   -3.1360    1.0640 ca        1 34S     -0.117000
     17 C28         2.7800   -3.0840    0.8230 ca        1 34S     -0.138000
     18 C29         2.0680   -1.9130    1.0730 ca        1 34S     -0.110000
     19 C15         0.7420    2.0890   -1.4150 ce        1 34S     -0.195200
     20 C14         0.8930    1.8520   -2.7210 cf        1 34S     -0.040200
     21 C13         1.2620    0.6330   -3.4200 ca        1 34S     -0.048800
     22 C10         1.0000    0.5530   -4.8050 ca        1 34S      0.087100
     23 O11         0.2990    1.5870   -5.4030 os        1 34S     -0.330900
     24 C12         1.0290    2.2910   -6.4080 c3        1 34S      0.113700
     25 C07         1.3470   -0.6130   -5.5250 ca        1 34S      0.098100
     26 O08         1.0650   -0.5900   -6.8770 os        1 34S     -0.324900
     27 C09         1.2570   -1.8150   -7.5780 c3        1 34S      0.112700
     28 C06         1.9570   -1.6860   -4.8720 ca        1 34S     -0.173000
     29 C05         2.2210   -1.6070   -3.5000 ca        1 34S     -0.064300
     30 C04         2.8420   -2.7710   -2.8000 c3        1 34S      0.026200
     31 C03         4.1410   -3.1840   -3.3810 ca        1 34S     -0.430900
     32 C32         4.2900   -4.4320   -4.0040 ca        1 34S      0.486200
     33 N33         5.4350   -4.8920   -4.5250 nb        1 34S     -0.785000
     34 C34         6.5350   -4.0430   -4.4110 ca        1 34S      0.896900
     35 N35         7.7740   -4.5280   -4.8430 nv        1 34S     -0.929500
     36 N36         6.5100   -2.7770   -3.8590 nb        1 34S     -0.826000
     37 C02         5.3190   -2.3600   -3.3190 ca        1 34S      0.728200
     38 N01         5.2820   -1.1400   -2.6690 nv        1 34S     -0.947500
     39 C31         1.8740   -0.4580   -2.7870 ca        1 34S     -0.137000
     40 H1          3.9670    3.7730    1.4300 h4        1 34S      0.041800
     41 H2          4.3030    3.9140    3.9650 ha        1 34S      0.137000
     42 H3          3.9280    2.9320    6.2310 ha        1 34S      0.137000
     43 H4          2.5930    0.8420    6.4830 ha        1 34S      0.137000
     44 H5          1.6530   -0.3010    4.4750 ha        1 34S      0.144000
     45 H6          0.8530    0.1540    2.0660 h1        1 34S      0.095700
     46 H7          4.6320    0.0550    2.1820 ha        1 34S      0.146500
     47 H8          5.9000   -2.0420    1.7310 ha        1 34S      0.133500
     48 H9          4.7140   -4.0610    0.8660 ha        1 34S      0.135000
     49 H10         2.2560   -3.9700    0.4340 ha        1 34S      0.133500
     50 H11         0.9860   -1.8620    0.8650 ha        1 34S      0.146500
     51 H12         0.4660    3.1050   -1.0770 ha        1 34S      0.153000
     52 H13         0.6960    2.7010   -3.4120 ha        1 34S      0.146000
     53 H14         0.3020    3.0620   -6.7650 h1        1 34S      0.045033
     54 H15         1.9320    2.7730   -5.9610 h1        1 34S      0.045033
     55 H16         1.3220    1.6070   -7.2400 h1        1 34S      0.045033
     56 H17         2.3400   -2.0870   -7.6010 h1        1 34S      0.046700
     57 H18         0.6550   -2.6350   -7.1180 h1        1 34S      0.046700
     58 H19         0.8860   -1.5830   -8.6090 h1        1 34S      0.046700
     59 H20         2.2350   -2.5990   -5.4190 ha        1 34S      0.146000
     60 H21         2.9760   -2.5370   -1.7050 hc        1 34S      0.063700
     61 H22         2.1180   -3.6330   -2.8550 hc        1 34S      0.063700
     62 H23         3.4250   -5.1170   -4.0950 h4        1 34S      0.020100
     63 H24         7.7540   -5.2990   -5.4690 hn        1 34S      0.425300
     64 H25         8.4910   -3.8570   -4.9910 hn        1 34S      0.425300
     65 H26         4.3870   -0.7300   -2.5360 hn        1 34S      0.431800
     66 H27         6.0540   -0.5240   -2.7620 hn        1 34S      0.431800
     67 H28         2.0690   -0.4160   -1.7030 ha        1 34S      0.150000
@<TRIPOS>BOND
     1    1    2 2   
     2    2    3 1   
     3    2   19 1   
     4    3    4 1   
     5    3   12 1   
     6    4    5 2   
     7    5    6 1   
     8    5   40 1   
     9    6    7 ar  
    10    6   11 ar  
    11    7    8 ar  
    12    7   41 1   
    13    8    9 ar  
    14    8   42 1   
    15    9   10 ar  
    16    9   43 1   
    17   10   11 ar  
    18   10   44 1   
    19   11   12 1   
    20   12   13 1   
    21   12   45 1   
    22   13   14 ar  
    23   13   18 ar  
    24   14   15 ar  
    25   14   46 1   
    26   15   16 ar  
    27   15   47 1   
    28   16   17 ar  
    29   16   48 1   
    30   17   18 ar  
    31   17   49 1   
    32   18   50 1   
    33   19   20 2   
    34   19   51 1   
    35   20   21 1   
    36   20   52 1   
    37   21   22 ar  
    38   21   39 ar  
    39   22   23 1   
    40   22   25 ar  
    41   23   24 1   
    42   24   53 1   
    43   24   54 1   
    44   24   55 1   
    45   25   26 1   
    46   25   28 ar  
    47   26   27 1   
    48   27   56 1   
    49   27   57 1   
    50   27   58 1   
    51   28   29 ar  
    52   28   59 1   
    53   29   30 1   
    54   29   39 ar  
    55   30   31 1   
    56   30   60 1   
    57   30   61 1   
    58   31   32 ar  
    59   31   37 ar  
    60   32   33 ar  
    61   32   62 1   
    62   33   34 ar  
    63   34   35 1   
    64   34   36 ar  
    65   35   63 1   
    66   35   64 1   
    67   36   37 ar  
    68   37   38 1   
    69   38   65 1   
    70   38   66 1   
    71   39   67 1   
@<TRIPOS>SUBSTRUCTURE
     1 34S         1 TEMP              0 ****  ****    0 ROOT
