@<TRIPOS>MOLECULE
34S
   67    57     1     0     0
SMALL
bcc


@<TRIPOS>ATOM
      1 O30        -0.4220   -0.8930   -0.1480 o         1 34S     -0.369000
      2 C16         0.2330   -1.9070   -0.5090 c1        1 34S      0.388000
      3 N17        -0.1620   -3.2040   -0.0700 n2        1 34S     -0.273000
      4 N18         0.5410   -4.3550   -0.5360 n2        1 34S     -0.014000
      5 C19         0.2650   -5.6590    0.0370 c1        1 34S     -0.124000
      6 C22        -0.7990   -5.8020    1.1200 c1        1 34S     -0.073000
      7 C40        -1.0670   -7.0580    1.6910 c1        1 34S     -0.117667
      8 C38        -2.0870   -7.1940    2.6040 c1        1 34S     -0.117667
      9 C37        -2.8600   -6.0740    2.9660 c1        1 34S     -0.117667
     10 C23        -2.5980   -4.8530    2.4100 c1        1 34S     -0.117667
     11 C21        -1.5570   -4.7130    1.4770 c1        1 34S     -0.069000
     12 C20        -1.3180   -3.3580    0.7940 c3        1 34S      0.092000
     13 C24        -2.5880   -3.0360   -0.0640 c2        1 34S     -0.090000
     14 C25        -3.4740   -1.9940    0.3360 c2        1 34S     -0.133000
     15 C26        -4.5740   -1.6710   -0.4600 c1        1 34S     -0.130000
     16 C27        -4.8090   -2.3740   -1.6600 c1        1 34S     -0.117667
     17 C28        -3.9390   -3.3960   -2.0510 c1        1 34S     -0.117667
     18 C29        -2.8190   -3.7250   -1.2400 c1        1 34S     -0.106000
     19 C15         1.3670   -1.7620   -1.5260 c2        1 34S     -0.190000
     20 C14         1.9420   -0.5830   -1.7140 c1        1 34S     -0.027000
     21 C13         1.4670    0.6400   -0.9080 c1        1 34S     -0.072000
     22 C10         0.1870    1.1850   -1.1420 c2        1 34S      0.071000
     23 O11        -0.6640    0.6020   -2.1020 os        1 34S     -0.213000
     24 C12        -0.6360    1.2450   -3.3570 c3        1 34S     -0.066000
     25 C07        -0.2370    2.2960   -0.4240 c1        1 34S      0.022000
     26 O08        -1.5400    2.7690   -0.5810 os        1 34S     -0.221000
     27 C09        -1.6220    4.1650   -0.7990 c3        1 34S     -0.075000
     28 C06         0.5970    2.8670    0.5200 c1        1 34S     -0.153000
     29 C05         1.8720    2.3230    0.7520 c1        1 34S     -0.076000
     30 C04         2.8280    2.9700    1.8370 c2        1 34S     -0.057000
     31 C03         3.5230    4.2180    1.2400 c2        1 34S     -0.293000
     32 C32         4.7110    4.0860    0.5770 c2        1 34S      0.019000
     33 N33         5.2560    5.1480   -0.0460 n1        1 34S     -0.261000
     34 C34         4.6210    6.3600   -0.0170 c1        1 34S      0.170000
     35 N35         5.2010    7.4750   -0.6610 n2        1 34S     -0.326500
     36 N36         3.4450    6.4920    0.6390 n1        1 34S     -0.299000
     37 C02         2.8930    5.4220    1.2690 c1        1 34S      0.204000
     38 N01         1.6990    5.5850    2.0580 n2        1 34S     -0.326500
     39 C31         2.2950    1.2070    0.0300 c2        1 34S     -0.115000
     40 H1          0.7590   -6.4670   -0.2930 ha        1 34S      0.172000
     41 H2         -0.5080   -7.8670    1.4280 ha        1 34S      0.136667
     42 H3         -2.2730   -8.0580    2.9980 ha        1 34S      0.136667
     43 H4         -3.5600   -6.1640    3.5880 ha        1 34S      0.136667
     44 H5         -3.1480   -4.0600    2.6680 ha        1 34S      0.136667
     45 H6         -1.2510   -2.6640    1.5180 h1        1 34S      0.130000
     46 H7         -3.3120   -1.5080    1.1680 ha        1 34S      0.134000
     47 H8         -5.1800   -0.9590   -0.1860 ha        1 34S      0.142000
     48 H9         -5.6090   -2.1390   -2.2380 ha        1 34S      0.136667
     49 H10        -4.1120   -3.9140   -2.9360 ha        1 34S      0.136667
     50 H11        -2.1960   -4.4570   -1.5190 ha        1 34S      0.140000
     51 H12         1.6600   -2.5160   -2.0240 ha        1 34S      0.155000
     52 H13         2.6940   -0.4860   -2.3870 ha        1 34S      0.142000
     53 H14         0.0480    1.9340   -3.3530 h1        1 34S      0.086333
     54 H15        -1.5090    1.6540   -3.5350 h1        1 34S      0.086333
     55 H16        -0.4400    0.6080   -4.0340 h1        1 34S      0.086333
     56 H17        -2.5480    4.4920   -0.5520 h1        1 34S      0.085333
     57 H18        -0.9530    4.6230   -0.2430 h1        1 34S      0.085333
     58 H19        -1.4550    4.3520   -1.7160 h1        1 34S      0.085333
     59 H20         0.2960    3.6580    1.0300 ha        1 34S      0.145000
     60 H21         2.3200    3.2240    2.5980 ha        1 34S      0.095000
     61 H22         3.4870    2.3350    2.0950 ha        1 34S      0.095000
     62 H23         5.1770    3.1960    0.5540 h4        1 34S      0.153000
     63 H24         5.9630    7.3890   -1.0780 hn        1 34S      0.222250
     64 H25         4.7710    8.2730   -0.6610 hn        1 34S      0.222250
     65 H26         1.2190    6.3950    2.0240 hn        1 34S      0.222250
     66 H27         1.3480    4.8380    2.5570 hn        1 34S      0.222250
     67 H28         3.1390    0.8450    0.1840 ha        1 34S      0.161000
@<TRIPOS>BOND
     1    1    2 1   
     2    2   19 1   
     3    3    4 1   
     4    3   12 1   
     5    4    5 1   
     6    5   40 1   
     7    6   11 1   
     8    7    8 1   
     9    7   41 1   
    10    8   42 1   
    11    9   10 1   
    12    9   43 1   
    13   10   44 1   
    14   11   12 1   
    15   12   13 1   
    16   12   45 1   
    17   13   14 1   
    18   13   18 1   
    19   14   15 1   
    20   14   46 1   
    21   15   47 1   
    22   16   17 1   
    23   16   48 1   
    24   17   49 1   
    25   18   50 1   
    26   19   20 1   
    27   19   51 1   
    28   20   52 1   
    29   21   22 1   
    30   21   39 1   
    31   22   23 1   
    32   22   25 1   
    33   23   24 1   
    34   24   53 1   
    35   24   54 1   
    36   24   55 1   
    37   25   26 1   
    38   26   27 1   
    39   27   56 1   
    40   27   57 1   
    41   27   58 1   
    42   28   29 1   
    43   28   59 1   
    44   29   39 1   
    45   30   31 1   
    46   30   60 1   
    47   30   61 1   
    48   31   32 1   
    49   31   37 1   
    50   32   33 1   
    51   32   62 1   
    52   34   36 1   
    53   35   63 1   
    54   35   64 1   
    55   38   65 1   
    56   38   66 1   
    57   39   67 1   
@<TRIPOS>SUBSTRUCTURE
     1 34S         1 TEMP              0 ****  ****    0 ROOT
