@<TRIPOS>MOLECULE
34S
   69    73     1     0     0
SMALL
bcc


@<TRIPOS>ATOM
      1 O30         3.5470   -2.1460   -2.0810 o         1 34S     -0.713100
      2 C16         2.8330   -1.5580   -1.2290 c         1 34S      0.729300
      3 N17         3.3620   -1.1540    0.0120 n         1 34S     -0.219800
      4 N18         4.6730   -1.3520    0.2810 n2        1 34S     -0.536300
      5 C19         5.1970   -0.8580    1.3740 ce        1 34S      0.437800
      6 C22         4.4780   -0.0940    2.3810 ca        1 34S     -0.197900
      7 C40         5.1100    0.5240    3.4620 ca        1 34S     -0.081000
      8 C38         4.3520    1.2640    4.3690 ca        1 34S     -0.115000
      9 C37         2.9720    1.3870    4.1960 ca        1 34S     -0.080000
     10 C23         2.3360    0.7670    3.1190 ca        1 34S     -0.109000
     11 C21         3.0870    0.0210    2.2100 ca        1 34S     -0.069300
     12 C20         2.4060   -0.6830    1.0580 c3        1 34S      0.187300
     13 C24         1.5370   -1.7900    1.6080 ca        1 34S     -0.143300
     14 C25         2.0810   -2.9910    2.0710 ca        1 34S     -0.119000
     15 C26         1.2510   -3.9740    2.6110 ca        1 34S     -0.118000
     16 C27        -0.1240   -3.7600    2.6970 ca        1 34S     -0.099000
     17 C28        -0.6710   -2.5590    2.2410 ca        1 34S     -0.118000
     18 C29         0.1540   -1.5780    1.6960 ca        1 34S     -0.119000
     19 C15         1.4130   -1.2340   -1.5110 ce        1 34S     -0.240200
     20 C14         0.9340   -0.5990   -2.5900 cf        1 34S     -0.020200
     21 C13         1.6530   -0.0720   -3.7380 ca        1 34S     -0.098800
     22 C10         0.9570    0.1200   -4.9600 ca        1 34S      0.175100
     23 O11        -0.3590   -0.2350   -4.9330 os        1 34S     -0.315900
     24 C12        -1.2320    0.2430   -5.9650 c3        1 34S      0.119700
     25 C07         1.6730    0.5780   -6.1020 ca        1 34S      0.079100
     26 O08         0.9470    0.7260   -7.2600 os        1 34S     -0.320900
     27 C09         1.5380    1.5160   -8.2960 c3        1 34S      0.105700
     28 C06         3.0500    0.8010   -6.0320 ca        1 34S     -0.163000
     29 C05         3.7260    0.6160   -4.8190 ca        1 34S     -0.185300
     30 C04         5.1960    0.8460   -4.7360 c3        1 34S     -0.013800
     31 C03         5.8880   -0.1360   -3.8590 ca        1 34S     -0.190900
     32 C32         6.8730    0.3130   -2.9260 ca        1 34S      0.484200
     33 N33         7.4790   -0.4910   -2.0470 nb        1 34S     -0.619000
     34 C34         7.1240   -1.8240   -2.1150 ca        1 34S      0.741900
     35 N35         7.6840   -2.7210   -1.0660 n4        1 34S     -0.814300
     36 N36         6.2750   -2.4000   -3.0080 nb        1 34S     -0.629000
     37 C02         5.6330   -1.5300   -3.8480 ca        1 34S      0.552200
     38 N01         4.5670   -2.1080   -4.6850 n4        1 34S     -0.828300
     39 C31         3.0140    0.2440   -3.6800 ca        1 34S     -0.141000
     40 H1          6.2760   -1.0420    1.5240 h4        1 34S      0.015800
     41 H2          6.1980    0.4280    3.5980 ha        1 34S      0.141000
     42 H3          4.8440    1.7520    5.2260 ha        1 34S      0.161000
     43 H4          2.3780    1.9740    4.9160 ha        1 34S      0.162000
     44 H5          1.2450    0.8530    2.9940 ha        1 34S      0.154000
     45 H6          1.7450    0.0830    0.5410 h1        1 34S      0.084700
     46 H7          3.1660   -3.1640    2.0270 ha        1 34S      0.130000
     47 H8          1.6850   -4.9160    2.9790 ha        1 34S      0.150500
     48 H9         -0.7780   -4.5340    3.1300 ha        1 34S      0.156000
     49 H10        -1.7560   -2.3840    2.3170 ha        1 34S      0.150500
     50 H11        -0.2830   -0.6280    1.3520 ha        1 34S      0.130000
     51 H12         0.7040   -1.6090   -0.7450 ha        1 34S      0.186000
     52 H13        -0.1700   -0.4670   -2.6570 ha        1 34S      0.178000
     53 H14        -2.2470   -0.0100   -5.5600 h1        1 34S      0.071033
     54 H15        -1.1150    1.3430   -6.1070 h1        1 34S      0.071033
     55 H16        -1.0300   -0.3100   -6.9150 h1        1 34S      0.071033
     56 H17         2.3840    0.9580   -8.7660 h1        1 34S      0.063367
     57 H18         1.8770    2.5030   -7.9020 h1        1 34S      0.063367
     58 H19         0.6960    1.6430   -9.0250 h1        1 34S      0.063367
     59 H20         3.6000    1.1460   -6.9220 ha        1 34S      0.161000
     60 H21         5.6610    0.8060   -5.7630 hc        1 34S      0.107200
     61 H22         5.3770    1.8910   -4.3460 hc        1 34S      0.107200
     62 H23         7.1640    1.3870   -2.8800 h4        1 34S      0.100100
     63 H24         7.0100   -2.7360   -0.2800 hn        1 34S      0.496800
     64 H25         7.8030   -3.6760   -1.4320 hn        1 34S      0.496800
     65 H26         4.4470   -1.5330   -5.5310 hn        1 34S      0.497800
     66 H27         3.6830   -2.0710   -4.1170 hn        1 34S      0.497800
     67 H28         3.5320    0.2040   -2.7080 ha        1 34S      0.144000
     68 H353        8.5920   -2.3590   -0.7390 hn        1 34S      0.496800
     69 H013        4.7660   -3.0840   -4.9350 hn        1 34S      0.497800
@<TRIPOS>BOND
     1    1    2 2   
     2    2    3 1   
     3    2   19 1   
     4    3    4 1   
     5    3   12 1   
     6    4    5 2   
     7    5    6 1   
     8    5   40 1   
     9    6    7 ar  
    10    6   11 ar  
    11    7    8 ar  
    12    7   41 1   
    13    8    9 ar  
    14    8   42 1   
    15    9   10 ar  
    16    9   43 1   
    17   10   11 ar  
    18   10   44 1   
    19   11   12 1   
    20   12   13 1   
    21   12   45 1   
    22   13   14 ar  
    23   13   18 ar  
    24   14   15 ar  
    25   14   46 1   
    26   15   16 ar  
    27   15   47 1   
    28   16   17 ar  
    29   16   48 1   
    30   17   18 ar  
    31   17   49 1   
    32   18   50 1   
    33   19   20 2   
    34   19   51 1   
    35   20   21 1   
    36   20   52 1   
    37   21   22 ar  
    38   21   39 ar  
    39   22   23 1   
    40   22   25 ar  
    41   23   24 1   
    42   24   53 1   
    43   24   54 1   
    44   24   55 1   
    45   25   26 1   
    46   25   28 ar  
    47   26   27 1   
    48   27   56 1   
    49   27   57 1   
    50   27   58 1   
    51   28   29 ar  
    52   28   59 1   
    53   29   30 1   
    54   29   39 ar  
    55   30   31 1   
    56   30   60 1   
    57   30   61 1   
    58   31   32 ar  
    59   31   37 ar  
    60   32   33 ar  
    61   32   62 1   
    62   33   34 ar  
    63   34   35 1   
    64   34   36 ar  
    65   35   63 1   
    66   35   64 1   
    67   35   68 1   
    68   36   37 ar  
    69   37   38 1   
    70   38   65 1   
    71   38   66 1   
    72   38   69 1   
    73   39   67 1   
@<TRIPOS>SUBSTRUCTURE
     1 34S         1 TEMP              0 ****  ****    0 ROOT
