@<TRIPOS>MOLECULE
34S
   67    71     1     0     0
SMALL
bcc


@<TRIPOS>ATOM
      1 O30         0.1560    0.1820   -0.0360 o         1 34S     -0.577100
      2 C16         0.9130    1.1450   -0.2460 c         1 34S      0.695300
      3 N17         1.9620    1.3940    0.6830 n         1 34S     -0.249800
      4 N18         2.7430    2.4730    0.5270 n2        1 34S     -0.433300
      5 C19         3.4200    2.9500    1.5390 ce        1 34S      0.375800
      6 C22         3.3530    2.4200    2.8980 ca        1 34S     -0.160900
      7 C40         3.9210    3.0720    3.9950 ca        1 34S     -0.102000
      8 C38         3.7530    2.5420    5.2730 ca        1 34S     -0.129000
      9 C37         3.0170    1.3710    5.4580 ca        1 34S     -0.117000
     10 C23         2.4510    0.7130    4.3650 ca        1 34S     -0.112000
     11 C21         2.6270    1.2280    3.0800 ca        1 34S     -0.079300
     12 C20         2.0500    0.5160    1.8780 c3        1 34S      0.179300
     13 C24         2.8470   -0.7360    1.5820 ca        1 34S     -0.111300
     14 C25         4.2330   -0.7780    1.7600 ca        1 34S     -0.110000
     15 C26         4.9360   -1.9540    1.5010 ca        1 34S     -0.138000
     16 C27         4.2610   -3.0900    1.0560 ca        1 34S     -0.116000
     17 C28         2.8800   -3.0470    0.8640 ca        1 34S     -0.138000
     18 C29         2.1730   -1.8730    1.1230 ca        1 34S     -0.110000
     19 C15         0.7440    2.0870   -1.3740 ce        1 34S     -0.195200
     20 C14         0.8470    1.8310   -2.6810 cf        1 34S     -0.040200
     21 C13         1.1910    0.6020   -3.3750 ca        1 34S     -0.048800
     22 C10         0.8770    0.5010   -4.7470 ca        1 34S      0.087100
     23 O11         0.1520    1.5250   -5.3350 os        1 34S     -0.330900
     24 C12         0.8440    2.2150   -6.3760 c3        1 34S      0.113700
     25 C07         1.1990   -0.6750   -5.4620 ca        1 34S      0.098100
     26 O08         0.8660   -0.6730   -6.8040 os        1 34S     -0.324900
     27 C09         1.0330   -1.9080   -7.4930 c3        1 34S      0.112700
     28 C06         1.8340   -1.7380   -4.8170 ca        1 34S     -0.173000
     29 C05         2.1490   -1.6380   -3.4570 ca        1 34S     -0.064300
     30 C04         2.7970   -2.7920   -2.7640 c3        1 34S      0.026200
     31 C03         4.0730   -3.2130   -3.3870 ca        1 34S     -0.430900
     32 C32         4.1990   -4.4710   -3.9950 ca        1 34S      0.486200
     33 N33         5.3230   -4.9400   -4.5530 nb        1 34S     -0.785000
     34 C34         6.4260   -4.0890   -4.4940 ca        1 34S      0.896900
     35 N35         7.6470   -4.5810   -4.9660 nh        1 34S     -0.929500
     36 N36         6.4210   -2.8140   -3.9620 nb        1 34S     -0.826000
     37 C02         5.2520   -2.3880   -3.3840 ca        1 34S      0.728200
     38 N01         5.2390   -1.1580   -2.7520 nh        1 34S     -0.947500
     39 C31         1.8280   -0.4790   -2.7490 ca        1 34S     -0.137000
     40 H1          4.0640    3.8220    1.3290 h4        1 34S      0.041800
     41 H2          4.4900    4.0010    3.8470 ha        1 34S      0.137000
     42 H3          4.2000    3.0520    6.1400 ha        1 34S      0.137000
     43 H4          2.8820    0.9620    6.4700 ha        1 34S      0.137000
     44 H5          1.8750   -0.2130    4.5130 ha        1 34S      0.144000
     45 H6          0.9870    0.2040    2.1290 h1        1 34S      0.095700
     46 H7          4.7690    0.1180    2.1100 ha        1 34S      0.146500
     47 H8          6.0270   -1.9820    1.6430 ha        1 34S      0.133500
     48 H9          4.8180   -4.0160    0.8510 ha        1 34S      0.135000
     49 H10         2.3460   -3.9390    0.5070 ha        1 34S      0.133500
     50 H11         1.0840   -1.8300    0.9530 ha        1 34S      0.146500
     51 H12         0.4790    3.1080   -1.0410 ha        1 34S      0.153000
     52 H13         0.6220    2.6700   -3.3760 ha        1 34S      0.146000
     53 H14         1.1070    1.5180   -7.2080 h1        1 34S      0.045033
     54 H15         0.1030    2.9800   -6.7170 h1        1 34S      0.045033
     55 H16         1.7620    2.7050   -5.9710 h1        1 34S      0.045033
     56 H17         0.6230   -1.6920   -8.5120 h1        1 34S      0.046700
     57 H18         0.4500   -2.7220   -6.9980 h1        1 34S      0.046700
     58 H19         2.1150   -2.1790   -7.5520 h1        1 34S      0.046700
     59 H20         2.0920   -2.6590   -5.3600 ha        1 34S      0.146000
     60 H21         2.9730   -2.5400   -1.6780 hc        1 34S      0.063700
     61 H22         2.0720   -3.6540   -2.7770 hc        1 34S      0.063700
     62 H23         3.3320   -5.1580   -4.0410 h4        1 34S      0.020100
     63 H24         8.3580   -3.9120   -5.1520 hn        1 34S      0.425300
     64 H25         7.6040   -5.3620   -5.5780 hn        1 34S      0.425300
     65 H26         4.3500   -0.7470   -2.5910 hn        1 34S      0.431800
     66 H27         6.0070   -0.5440   -2.8850 hn        1 34S      0.431800
     67 H28         2.0630   -0.4200   -1.6740 ha        1 34S      0.150000
@<TRIPOS>BOND
     1    1    2 2   
     2    2    3 1   
     3    2   19 1   
     4    3    4 1   
     5    3   12 1   
     6    4    5 2   
     7    5    6 1   
     8    5   40 1   
     9    6    7 ar  
    10    6   11 ar  
    11    7    8 ar  
    12    7   41 1   
    13    8    9 ar  
    14    8   42 1   
    15    9   10 ar  
    16    9   43 1   
    17   10   11 ar  
    18   10   44 1   
    19   11   12 1   
    20   12   13 1   
    21   12   45 1   
    22   13   14 ar  
    23   13   18 ar  
    24   14   15 ar  
    25   14   46 1   
    26   15   16 ar  
    27   15   47 1   
    28   16   17 ar  
    29   16   48 1   
    30   17   18 ar  
    31   17   49 1   
    32   18   50 1   
    33   19   20 2   
    34   19   51 1   
    35   20   21 1   
    36   20   52 1   
    37   21   22 ar  
    38   21   39 ar  
    39   22   23 1   
    40   22   25 ar  
    41   23   24 1   
    42   24   53 1   
    43   24   54 1   
    44   24   55 1   
    45   25   26 1   
    46   25   28 ar  
    47   26   27 1   
    48   27   56 1   
    49   27   57 1   
    50   27   58 1   
    51   28   29 ar  
    52   28   59 1   
    53   29   30 1   
    54   29   39 ar  
    55   30   31 1   
    56   30   60 1   
    57   30   61 1   
    58   31   32 ar  
    59   31   37 ar  
    60   32   33 ar  
    61   32   62 1   
    62   33   34 ar  
    63   34   35 1   
    64   34   36 ar  
    65   35   63 1   
    66   35   64 1   
    67   36   37 ar  
    68   37   38 1   
    69   38   65 1   
    70   38   66 1   
    71   39   67 1   
@<TRIPOS>SUBSTRUCTURE
     1 34S         1 TEMP              0 ****  ****    0 ROOT
