@<TRIPOS>MOLECULE
34T
   27    25     1     0     0
SMALL
bcc


@<TRIPOS>ATOM
      1 S           0.5790    0.5340    0.0090 s4        1 34T      1.546000
      2 HS          0.9480   -1.6060    0.6150 ho        1 34T      0.245000
      3 O1          2.0210    0.4620    0.3280 o         1 34T     -0.797000
      4 C1         -5.1140   -0.3260    1.8440 c1        1 34T     -0.071000
      5 C2         -5.3530   -1.5740    2.4480 c2        1 34T     -0.246000
      6 C3         -3.2480    2.6980    2.4290 c3        1 34T     -0.183000
      7 C4         -2.0910    1.8430    2.7920 c2        1 34T     -0.105000
      8 C5         -1.6250    1.7430    4.0410 c2        1 34T     -0.189000
      9 C6          2.0600    1.9960    2.2470 c1        1 34T      0.204000
     10 C7          0.7400    2.0480    2.1520 c2        1 34T     -0.420000
     11 C8         -0.1420    1.2220    1.3590 c2        1 34T     -0.727000
     12 C9         -1.4780    1.0760    1.6740 c2        1 34T      0.224000
     13 N          -2.3150    0.2680    0.9570 n8        1 34T     -0.378000
     14 HN         -5.9350    0.3880    1.7060 ha        1 34T      0.076000
     15 H1         -1.9170   -0.4220    0.3630 hn        1 34T      0.248500
     16 H1A        -3.2580    0.1170    1.2820 hn        1 34T      0.248500
     17 H2         -4.8170   -2.4240    1.9750 ha        1 34T      0.165000
     18 H3         -4.1370    2.0610    2.1840 hc        1 34T      0.087000
     19 H3A        -3.0060    3.3200    1.5310 hc        1 34T      0.087000
     20 H5         -2.0690    2.3030    4.8740 ha        1 34T      0.125000
     21 H6         -0.7700    1.1030    4.3000 ha        1 34T      0.125000
     22 H7          0.2540    2.8340    2.7730 ha        1 34T      0.180000
     23 H10A       -6.0480   -2.7330    4.1090 ha        1 34T      0.123000
     24 H10B       -3.5220    3.3800    3.2700 hc        1 34T      0.087000
     25 O2          0.2330   -1.1290    0.1930 oh        1 34T     -0.639000
     26 C10        -6.0360   -1.7650    3.5900 c2        1 34T     -0.140000
     27 H10        -6.5590   -0.9500    4.1100 ha        1 34T      0.123000
@<TRIPOS>BOND
     1    1    3 1   
     2    1   11 1   
     3    1   25 1   
     4    2   25 1   
     5    4    5 1   
     6    4   14 1   
     7    5   17 1   
     8    5   26 1   
     9    6    7 1   
    10    6   18 1   
    11    6   19 1   
    12    6   24 1   
    13    7    8 1   
    14    7   12 1   
    15    8   20 1   
    16    8   21 1   
    17    9   10 1   
    18   10   11 1   
    19   10   22 1   
    20   11   12 1   
    21   12   13 1   
    22   13   15 1   
    23   13   16 1   
    24   23   26 1   
    25   26   27 1   
@<TRIPOS>SUBSTRUCTURE
     1 34T         1 TEMP              0 ****  ****    0 ROOT
