@<TRIPOS>MOLECULE
34T
   27    28     1     0     0
SMALL
bcc


@<TRIPOS>ATOM
      1 S           2.4140    0.6800    0.3150 sy        1 34T      1.405300
      2 HS          2.4170    0.7490    1.5420 hs        1 34T     -0.040200
      3 O1          3.6420    0.1400   -0.0990 o         1 34T     -0.665300
      4 C1         -2.0180    1.5680    0.4430 c3        1 34T      0.207800
      5 C2         -2.9230    0.6000   -0.3270 c3        1 34T     -0.086700
      6 C3         -2.6290   -0.8230    0.1190 c3        1 34T     -0.026100
      7 C4         -1.1740   -1.1300    0.0570 ca        1 34T     -0.172300
      8 C5         -0.7550   -2.4340   -0.1290 ca        1 34T     -0.024000
      9 C6          0.6100   -2.7530   -0.1850 ca        1 34T     -0.202000
     10 C7          1.5440   -1.7490   -0.0520 ca        1 34T      0.001000
     11 C8          1.1770   -0.3990    0.1430 ca        1 34T     -0.500500
     12 C9         -0.2080   -0.0780    0.1980 ca        1 34T      0.322600
     13 N          -0.6210    1.2160    0.4350 nh        1 34T     -0.765600
     14 HN          0.0110    1.9610    0.2190 hn        1 34T      0.461800
     15 H1         -2.1330    2.6030    0.0120 h1        1 34T      0.053200
     16 H1A        -2.3570    1.6020    1.5200 h1        1 34T      0.053200
     17 H2         -2.6980    0.6880   -1.4270 hc        1 34T      0.062700
     18 H3         -2.9880   -0.9650    1.1750 hc        1 34T      0.055200
     19 H3A        -3.2020   -1.5400   -0.5260 hc        1 34T      0.055200
     20 H5         -1.5030   -3.2360   -0.2400 ha        1 34T      0.135000
     21 H6          0.9240   -3.7950   -0.3390 ha        1 34T      0.143000
     22 H7          2.6220   -1.9930   -0.1060 ha        1 34T      0.159000
     23 H10A       -4.5750    2.0000   -0.4330 hc        1 34T      0.040700
     24 H10B       -5.0340    0.2610   -0.6680 hc        1 34T      0.040700
     25 O2          2.0720    1.9540   -0.1800 o         1 34T     -0.665300
     26 C10        -4.3730    0.9550   -0.0950 c3        1 34T     -0.091100
     27 H10        -4.6340    0.8770    0.9890 hc        1 34T      0.040700
@<TRIPOS>BOND
     1    1    2 1   
     2    1    3 2   
     3    1   11 1   
     4    1   25 2   
     5    4    5 1   
     6    4   13 1   
     7    4   15 1   
     8    4   16 1   
     9    5    6 1   
    10    5   17 1   
    11    5   26 1   
    12    6    7 1   
    13    6   18 1   
    14    6   19 1   
    15    7    8 ar  
    16    7   12 ar  
    17    8    9 ar  
    18    8   20 1   
    19    9   10 ar  
    20    9   21 1   
    21   10   11 ar  
    22   10   22 1   
    23   11   12 ar  
    24   12   13 1   
    25   13   14 1   
    26   23   26 1   
    27   24   26 1   
    28   26   27 1   
@<TRIPOS>SUBSTRUCTURE
     1 34T         1 TEMP              0 ****  ****    0 ROOT
