@<TRIPOS>MOLECULE
34T
   27    24     1     0     0
SMALL
bcc


@<TRIPOS>ATOM
      1 S           2.7040   -0.7080   -2.1330 ss        1 34T      2.867000
      2 HS          2.2770   -0.2450   -3.1280 DU        1 34T     -0.182000
      3 O1          4.1410   -0.7080   -2.1330 o         1 34T     -0.944500
      4 C1         -1.5560   -0.8220   -0.8400 c3        1 34T     -0.029000
      5 C2         -1.8710   -0.7080    0.6050 c3        1 34T     -0.126000
      6 C3         -1.2200    0.3350    1.3190 c3        1 34T     -0.112000
      7 C4          0.2280    0.6640    0.8750 c2        1 34T     -0.165000
      8 C5          1.0530    1.4910    1.6030 c1        1 34T     -0.024000
      9 C6          2.3960    1.6830    1.2000 c2        1 34T     -0.202000
     10 C7          2.9040    1.0120    0.0260 c1        1 34T      0.001000
     11 C8          2.0600    0.1600   -0.7270 c1        1 34T     -0.945000
     12 C9          0.7540   -0.0300   -0.3400 c2        1 34T      0.241000
     13 C10        -3.4840   -0.4790    0.7470 c3        1 34T     -0.209000
     14 N          -0.2470   -0.8880   -1.1770 n3        1 34T     -0.321000
     15 HN         -0.1500   -0.6900   -2.0620 hn        1 34T      0.257000
     16 H1         -1.9940   -1.6250   -1.1800 h1        1 34T      0.092500
     17 H1A        -1.9440   -0.0490   -1.2930 h1        1 34T      0.092500
     18 H2         -1.6440   -1.5550    1.0320 hc        1 34T      0.102000
     19 H3         -1.1870    0.0710    2.2580 hc        1 34T      0.094500
     20 H3A        -1.7530    1.1450    1.2060 hc        1 34T      0.094500
     21 H5          0.7110    1.9450    2.3960 DU        1 34T     -0.182000
     22 H6          2.9800    2.2700    1.7170 ha        1 34T      0.143000
     23 H7          3.8310    1.1470   -0.2490 ha        1 34T      0.159000
     24 H10        -3.9490   -1.0150    0.0760 hc        1 34T      0.080000
     25 H10A       -3.7740   -0.7520    1.6390 hc        1 34T      0.080000
     26 H10B       -3.6930    0.4650    0.6120 hc        1 34T      0.080000
     27 O2          2.4260   -2.1150   -2.0510 o         1 34T     -0.944500
@<TRIPOS>BOND
     1    1    3 1   
     2    1   27 1   
     3    4    5 1   
     4    4   14 1   
     5    4   16 1   
     6    4   17 1   
     7    5    6 1   
     8    5   13 1   
     9    5   18 1   
    10    6    7 1   
    11    6   19 1   
    12    6   20 1   
    13    7    8 1   
    14    7   12 1   
    15    8    9 1   
    16    9   10 1   
    17    9   22 1   
    18   10   23 1   
    19   11   12 1   
    20   12   14 1   
    21   13   24 1   
    22   13   25 1   
    23   13   26 1   
    24   14   15 1   
@<TRIPOS>SUBSTRUCTURE
     1 34T         1 TEMP              0 ****  ****    0 ROOT
