@<TRIPOS>MOLECULE
34T
   27    28     1     0     0
SMALL
bcc


@<TRIPOS>ATOM
      1 S           0.7530    0.1500    0.2670 s4        1 34T      1.586000
      2 HS         -0.2620    0.9870   -1.5570 ho        1 34T      0.237000
      3 O1         -0.0010   -0.9540   -0.3750 o         1 34T     -0.851000
      4 C1         -3.6700   -0.6380    1.6370 c3        1 34T     -0.027000
      5 C2         -4.1010    0.0390    2.9480 c3        1 34T     -0.118000
      6 C3         -3.2730    1.2840    3.2460 c3        1 34T     -0.153000
      7 C4         -1.8130    0.8960    3.2830 c3        1 34T     -0.098000
      8 C5         -0.8040    2.0390    3.4300 c3        1 34T     -0.073000
      9 C6          1.5210    2.2280    2.5520 c1        1 34T      0.166000
     10 C7          0.3230    1.6730    2.4890 c2        1 34T     -0.310000
     11 C8         -0.1540    0.6390    1.5620 c2        1 34T     -0.762000
     12 C9         -1.4150    0.2240    1.9740 c2        1 34T      0.208000
     13 N          -2.2500   -0.6590    1.3770 n3        1 34T     -0.290000
     14 HN         -4.0290   -1.7080    1.6510 h1        1 34T      0.089500
     15 H1         -1.9480   -1.1110    0.5330 hn        1 34T      0.276000
     16 H1A        -4.1820   -0.1160    0.7750 h1        1 34T      0.089500
     17 H2         -3.9410   -0.6950    3.7880 hc        1 34T      0.099000
     18 H3         -3.5830    1.7190    4.2310 hc        1 34T      0.097000
     19 H3A        -3.4510    2.0630    2.4600 hc        1 34T      0.097000
     20 H5         -1.6500    0.1540    4.1150 hc        1 34T      0.119000
     21 H6         -0.4470    2.1270    4.4850 hc        1 34T      0.099500
     22 H7         -1.2580    3.0150    3.1210 hc        1 34T      0.099500
     23 H10A       -5.9190    0.7910    3.8540 hc        1 34T      0.081667
     24 H10B       -5.7660    1.1420    2.0830 hc        1 34T      0.081667
     25 O2          0.3990    1.3020   -0.9390 oh        1 34T     -0.614000
     26 C10        -5.5730    0.3790    2.8750 c3        1 34T     -0.211000
     27 H10        -6.1710   -0.5350    2.6430 hc        1 34T      0.081667
@<TRIPOS>BOND
     1    1    3 1   
     2    1   11 1   
     3    1   25 1   
     4    2   25 1   
     5    4    5 1   
     6    4   13 1   
     7    4   14 1   
     8    4   16 1   
     9    5    6 1   
    10    5   17 1   
    11    5   26 1   
    12    6    7 1   
    13    6   18 1   
    14    6   19 1   
    15    7    8 1   
    16    7   12 1   
    17    7   20 1   
    18    8   10 1   
    19    8   21 1   
    20    8   22 1   
    21    9   10 1   
    22   10   11 1   
    23   11   12 1   
    24   12   13 1   
    25   13   15 1   
    26   23   26 1   
    27   24   26 1   
    28   26   27 1   
@<TRIPOS>SUBSTRUCTURE
     1 34T         1 TEMP              0 ****  ****    0 ROOT
