@<TRIPOS>MOLECULE
34U
   59    63     1     0     0
SMALL
bcc


@<TRIPOS>ATOM
      1 C01         3.9560   -1.5580    3.5210 c3        1 34U      0.111700
      2 O02         3.9350   -1.5340    2.0980 os        1 34U     -0.499600
      3 C03         2.8220   -0.8310    1.5500 c3        1 34U      0.099400
      4 C04         3.1580    0.6330    1.2840 c3        1 34U      0.095400
      5 O05         3.9950    0.7190    0.1280 os        1 34U     -0.344900
      6 C06         5.3150    1.0900    0.3220 ca        1 34U      0.074100
      7 C07         5.8920    1.7900   -0.7500 ca        1 34U     -0.090000
      8 C08         7.2660    2.0070   -0.7010 ca        1 34U      0.098400
      9 C09         8.0380    1.5360    0.4400 ca        1 34U     -0.090200
     10 C10         7.4230    0.9320    1.5320 ca        1 34U     -0.089000
     11 C11         6.0510    0.6980    1.4560 ca        1 34U     -0.239000
     12 N12         9.3820    1.9130    0.1950 na        1 34U     -0.205100
     13 C13         9.3580    2.5310   -1.0990 cc        1 34U      0.458700
     14 N14         8.1390    2.6360   -1.6250 nd        1 34U     -0.541100
     15 C15        10.5000    1.1540    0.6480 ca        1 34U      0.506800
     16 N16        10.3650   -0.1730    0.7950 nb        1 34U     -0.717000
     17 C17        11.4410   -0.8970    1.2520 ca        1 34U      0.397600
     18 C18        12.6760   -0.2650    1.5950 ca        1 34U     -0.144300
     19 C19        13.7550   -1.0280    2.1050 ca        1 34U     -0.097000
     20 C20        13.6230   -2.3850    2.2600 ca        1 34U     -0.117000
     21 C21        12.4270   -3.0380    1.8950 ca        1 34U     -0.091000
     22 C22        11.3370   -2.3400    1.3870 ca        1 34U      0.055300
     23 N23        10.1970   -3.0980    1.0000 nh        1 34U     -0.674000
     24 C24         9.7220   -3.0020   -0.3560 c3        1 34U      0.222300
     25 C25         8.3530   -2.3450   -0.5790 c3        1 34U     -0.134400
     26 C26         7.3430   -2.8800    0.4360 c3        1 34U      0.130500
     27 C27         7.8690   -2.6390    1.8520 c3        1 34U     -0.134400
     28 C28         9.2070   -3.3700    2.0110 c3        1 34U      0.222300
     29 N29         5.9900   -2.2530    0.2440 nz        1 34U     -0.850600
     30 C30        12.7850    1.1430    1.4170 ca        1 34U     -0.055000
     31 C31        11.7210    1.8650    0.9420 ca        1 34U     -0.233300
     32 H1          3.0710   -2.1190    3.9100 h1        1 34U      0.048033
     33 H2          4.9050   -2.0910    3.7790 h1        1 34U      0.048033
     34 H3          3.9650   -0.5170    3.9300 h1        1 34U      0.048033
     35 H4          2.6050   -1.3610    0.5820 h1        1 34U      0.072200
     36 H5          1.9310   -0.8980    2.2260 h1        1 34U      0.072200
     37 H6          3.6140    1.1250    2.1780 h1        1 34U      0.080200
     38 H7          2.2200    1.1790    0.9860 h1        1 34U      0.080200
     39 H8          5.2760    2.1380   -1.5930 ha        1 34U      0.183000
     40 H9          7.9960    0.6520    2.4280 ha        1 34U      0.157000
     41 H10         5.5370    0.2230    2.3070 ha        1 34U      0.148000
     42 H11        10.2830    2.9190   -1.5510 h5        1 34U      0.089800
     43 H12        14.6920   -0.5130    2.3710 ha        1 34U      0.152000
     44 H13        14.4540   -2.9880    2.6600 ha        1 34U      0.155000
     45 H14        12.3760   -4.1340    2.0150 ha        1 34U      0.156000
     46 H15        10.4750   -2.4500   -0.9880 h1        1 34U      0.066700
     47 H16         9.6540   -4.0640   -0.7400 h1        1 34U      0.066700
     48 H17         8.4380   -1.2300   -0.4870 hc        1 34U      0.074950
     49 H18         8.0250   -2.5840   -1.6240 hc        1 34U      0.074950
     50 H19         7.2010   -3.9920    0.2740 hx        1 34U      0.098700
     51 H20         8.0080   -1.5400    2.0290 hc        1 34U      0.074950
     52 H21         7.1530   -3.0350    2.6180 hc        1 34U      0.074950
     53 H22         9.0010   -4.4810    1.9750 h1        1 34U      0.066700
     54 H23         9.6210   -3.1270    3.0300 h1        1 34U      0.066700
     55 H24         5.6620   -2.4140   -0.7090 hn        1 34U      0.462800
     56 H25         6.0410   -1.2350    0.4110 hn        1 34U      0.462800
     57 H27        13.7360    1.6400    1.6690 ha        1 34U      0.161000
     58 H28        11.7770    2.9530    0.7980 ha        1 34U      0.167000
     59 H293        5.3160   -2.6460    0.9130 hn        1 34U      0.462800
@<TRIPOS>BOND
     1    1    2 1   
     2    1   32 1   
     3    1   33 1   
     4    1   34 1   
     5    2    3 1   
     6    3    4 1   
     7    3   35 1   
     8    3   36 1   
     9    4    5 1   
    10    4   37 1   
    11    4   38 1   
    12    5    6 1   
    13    6    7 ar  
    14    6   11 ar  
    15    7    8 ar  
    16    7   39 1   
    17    8    9 ar  
    18    8   14 1   
    19    9   10 ar  
    20    9   12 1   
    21   10   11 ar  
    22   10   40 1   
    23   11   41 1   
    24   12   13 1   
    25   12   15 1   
    26   13   14 2   
    27   13   42 1   
    28   15   16 ar  
    29   15   31 ar  
    30   16   17 ar  
    31   17   18 ar  
    32   17   22 ar  
    33   18   19 ar  
    34   18   30 ar  
    35   19   20 ar  
    36   19   43 1   
    37   20   21 ar  
    38   20   44 1   
    39   21   22 ar  
    40   21   45 1   
    41   22   23 1   
    42   23   24 1   
    43   23   28 1   
    44   24   25 1   
    45   24   46 1   
    46   24   47 1   
    47   25   26 1   
    48   25   48 1   
    49   25   49 1   
    50   26   27 1   
    51   26   29 1   
    52   26   50 1   
    53   27   28 1   
    54   27   51 1   
    55   27   52 1   
    56   28   53 1   
    57   28   54 1   
    58   29   55 1   
    59   29   56 1   
    60   29   59 1   
    61   30   31 ar  
    62   30   57 1   
    63   31   58 1   
@<TRIPOS>SUBSTRUCTURE
     1 34U         1 TEMP              0 ****  ****    0 ROOT
