@<TRIPOS>MOLECULE
34U
   59    63     1     0     0
SMALL
bcc


@<TRIPOS>ATOM
      1 C01         3.9330   -1.5380    3.4920 c3        1 34U      0.111700
      2 O02         3.9300   -1.5550    2.0690 os        1 34U     -0.499600
      3 C03         2.8150   -0.8800    1.4880 c3        1 34U      0.099400
      4 C04         3.1390    0.5800    1.1850 c3        1 34U      0.095400
      5 O05         3.9890    0.6420    0.0370 os        1 34U     -0.344900
      6 C06         5.3030    1.0330    0.2370 ca        1 34U      0.074100
      7 C07         5.8850    1.7090   -0.8480 ca        1 34U     -0.090000
      8 C08         7.2570    1.9430   -0.7870 ca        1 34U      0.098400
      9 C09         8.0190    1.5130    0.3760 ca        1 34U     -0.090200
     10 C10         7.3970    0.9330    1.4760 ca        1 34U     -0.089000
     11 C11         6.0290    0.6820    1.3900 ca        1 34U     -0.239000
     12 N12         9.3620    1.8980    0.1360 na        1 34U     -0.205100
     13 C13         9.3480    2.4800   -1.1750 cc        1 34U      0.458700
     14 N14         8.1340    2.5560   -1.7190 nd        1 34U     -0.541100
     15 C15        10.4820    1.1650    0.6240 ca        1 34U      0.506800
     16 N16        10.3600   -0.1590    0.8070 nb        1 34U     -0.717000
     17 C17        11.4370   -0.8580    1.2970 ca        1 34U      0.397600
     18 C18        12.6610   -0.2030    1.6370 ca        1 34U     -0.144300
     19 C19        13.7430   -0.9390    2.1810 ca        1 34U     -0.097000
     20 C20        13.6240   -2.2920    2.3720 ca        1 34U     -0.117000
     21 C21        12.4390   -2.9680    2.0120 ca        1 34U     -0.091000
     22 C22        11.3480   -2.2970    1.4710 ca        1 34U      0.055300
     23 N23        10.2210   -3.0790    1.0920 nh        1 34U     -0.674000
     24 C24         9.7620   -3.0260   -0.2720 c3        1 34U      0.222300
     25 C25         8.3890   -2.3910   -0.5300 c3        1 34U     -0.134400
     26 C26         7.3720   -2.9090    0.4880 c3        1 34U      0.130500
     27 C27         7.8770   -2.6230    1.9020 c3        1 34U     -0.134400
     28 C28         9.2220   -3.3330    2.0990 c3        1 34U      0.222300
     29 N29         6.0150   -2.3030    0.2610 n4        1 34U     -0.850600
     30 C30        12.7570    1.2010    1.4210 ca        1 34U     -0.055000
     31 C31        11.6920    1.8970    0.9120 ca        1 34U     -0.233300
     32 H1          3.9260   -0.4870    3.8720 h1        1 34U      0.048033
     33 H2          4.8850   -2.0530    3.7770 h1        1 34U      0.048033
     34 H3          3.0500   -2.0980    3.8860 h1        1 34U      0.048033
     35 H4          1.9170   -0.9380    2.1550 h1        1 34U      0.072200
     36 H5          2.6160   -1.4390    0.5330 h1        1 34U      0.072200
     37 H6          2.1980    1.1070    0.8600 h1        1 34U      0.080200
     38 H7          3.5780    1.1020    2.0700 h1        1 34U      0.080200
     39 H8          5.2770    2.0260   -1.7080 ha        1 34U      0.183000
     40 H9          7.9620    0.6850    2.3870 ha        1 34U      0.157000
     41 H10         5.5090    0.2260    2.2480 ha        1 34U      0.148000
     42 H11        10.2740    2.8650   -1.6270 h5        1 34U      0.089800
     43 H12        14.6700   -0.4060    2.4440 ha        1 34U      0.152000
     44 H13        14.4560   -2.8750    2.8000 ha        1 34U      0.155000
     45 H14        12.3980   -4.0610    2.1620 ha        1 34U      0.156000
     46 H15         9.7100   -4.0990   -0.6260 h1        1 34U      0.066700
     47 H16        10.5160   -2.4840   -0.9100 h1        1 34U      0.066700
     48 H17         8.0760   -2.6630   -1.5720 hc        1 34U      0.074950
     49 H18         8.4600   -1.2740   -0.4680 hc        1 34U      0.074950
     50 H19         7.2440   -4.0270    0.3550 hx        1 34U      0.098700
     51 H20         8.0030   -1.5160    2.0500 hc        1 34U      0.074950
     52 H21         7.1570   -3.0050    2.6710 hc        1 34U      0.074950
     53 H22         9.0280   -4.4470    2.0910 h1        1 34U      0.066700
     54 H23         9.6210   -3.0570    3.1150 h1        1 34U      0.066700
     55 H24         6.0520   -1.2790    0.4010 hn        1 34U      0.462800
     56 H25         5.7000   -2.4940   -0.6910 hn        1 34U      0.462800
     57 H27        13.7000    1.7150    1.6700 ha        1 34U      0.161000
     58 H28        11.7370    2.9820    0.7390 ha        1 34U      0.167000
     59 H293        5.3370   -2.6840    0.9330 hn        1 34U      0.462800
@<TRIPOS>BOND
     1    1    2 1   
     2    1   32 1   
     3    1   33 1   
     4    1   34 1   
     5    2    3 1   
     6    3    4 1   
     7    3   35 1   
     8    3   36 1   
     9    4    5 1   
    10    4   37 1   
    11    4   38 1   
    12    5    6 1   
    13    6    7 ar  
    14    6   11 ar  
    15    7    8 ar  
    16    7   39 1   
    17    8    9 ar  
    18    8   14 1   
    19    9   10 ar  
    20    9   12 1   
    21   10   11 ar  
    22   10   40 1   
    23   11   41 1   
    24   12   13 1   
    25   12   15 1   
    26   13   14 2   
    27   13   42 1   
    28   15   16 ar  
    29   15   31 ar  
    30   16   17 ar  
    31   17   18 ar  
    32   17   22 ar  
    33   18   19 ar  
    34   18   30 ar  
    35   19   20 ar  
    36   19   43 1   
    37   20   21 ar  
    38   20   44 1   
    39   21   22 ar  
    40   21   45 1   
    41   22   23 1   
    42   23   24 1   
    43   23   28 1   
    44   24   25 1   
    45   24   46 1   
    46   24   47 1   
    47   25   26 1   
    48   25   48 1   
    49   25   49 1   
    50   26   27 1   
    51   26   29 1   
    52   26   50 1   
    53   27   28 1   
    54   27   51 1   
    55   27   52 1   
    56   28   53 1   
    57   28   54 1   
    58   29   55 1   
    59   29   56 1   
    60   29   59 1   
    61   30   31 ar  
    62   30   57 1   
    63   31   58 1   
@<TRIPOS>SUBSTRUCTURE
     1 34U         1 TEMP              0 ****  ****    0 ROOT
