@<TRIPOS>MOLECULE
34W
   60    64     1     0     0
SMALL
bcc


@<TRIPOS>ATOM
      1 C01         0.3900    1.3480   -0.0350 c3        1 34W     -0.191100
      2 C02         1.8590    1.0930   -0.0010 c         1 34W      0.554100
      3 O03         2.6840    1.5160    0.7910 o         1 34W     -0.398100
      4 N04         2.3710    0.1930   -1.1090 n4        1 34W     -0.677800
      5 C05         3.8530    0.0570   -1.1610 c3        1 34W      0.007800
      6 C06         4.3160   -0.3010   -2.5940 c         1 34W      0.646100
      7 O07         3.4770   -0.2120   -3.5160 o         1 34W     -0.607100
      8 N08         5.5740   -0.8130   -2.7380 n         1 34W     -0.405800
      9 C09         6.7570   -0.4820   -1.8700 c3        1 34W      0.118000
     10 C10         7.7240   -1.6490   -2.2720 c3        1 34W     -0.072400
     11 C11         7.4150   -1.8560   -3.7710 c3        1 34W     -0.077400
     12 C12         6.3110   -0.7840   -4.0550 c3        1 34W      0.133000
     13 C13         7.0400    0.5560   -3.9640 ca        1 34W     -0.120300
     14 C14         7.3200    0.7480   -2.5740 ca        1 34W     -0.174300
     15 C15         8.0020    1.8620   -2.1470 ca        1 34W     -0.073000
     16 C16         8.4200    2.7960   -3.1070 ca        1 34W     -0.171000
     17 C17         8.1490    2.6170   -4.4800 ca        1 34W      0.171600
     18 C18         7.4260    1.4670   -4.9150 ca        1 34W     -0.070000
     19 N19         8.5170    3.6260   -5.3910 nh        1 34W     -0.721300
     20 C20         9.2650    3.3700   -6.5610 ca        1 34W      0.926900
     21 N21         9.3930    2.0580   -7.0140 nb        1 34W     -0.784000
     22 C22        10.0670    1.9040   -8.1580 ca        1 34W      0.542200
     23 C23        10.6230    2.9630   -8.8910 ca        1 34W     -0.534900
     24 C24        10.4550    4.2950   -8.3650 ca        1 34W      0.785200
     25 N25         9.7880    4.4860   -7.1750 nb        1 34W     -0.815000
     26 N26        10.9340    5.3730   -9.0670 nh        1 34W     -0.832900
     27 C27        10.9050    6.7260   -8.5940 cy        1 34W      0.201500
     28 C28        11.1690    7.8220   -9.6800 cy        1 34W     -0.105400
     29 C29        12.3580    8.3510   -8.8580 cy        1 34W     -0.094400
     30 C30        12.1520    7.2490   -7.8040 cy        1 34W     -0.105400
     31 C31        11.3670    2.7000  -10.1770 c3        1 34W      0.712200
     32 F32        11.4610    1.3770  -10.5280 f         1 34W     -0.236967
     33 F33        10.8240    3.3070  -11.2860 f         1 34W     -0.236967
     34 F34        12.6700    3.1440  -10.1790 f         1 34W     -0.236967
     35 H1         -0.1910    0.3910   -0.0240 hc        1 34W      0.117700
     36 H2          0.1130    1.9480    0.8730 hc        1 34W      0.117700
     37 H3          0.1150    1.9360   -0.9490 hc        1 34W      0.117700
     38 H4          2.0520    0.5620   -2.0250 hn        1 34W      0.475300
     39 H5          4.1710   -0.7280   -0.4190 hx        1 34W      0.131700
     40 H6          4.3240    1.0420   -0.8720 hx        1 34W      0.131700
     41 H7          6.5290   -0.3910   -0.7890 h1        1 34W      0.083700
     42 H8          8.7820   -1.3430   -2.1010 hc        1 34W      0.072200
     43 H9          7.5060   -2.5660   -1.6770 hc        1 34W      0.072200
     44 H10         8.3070   -1.6660   -4.4120 hc        1 34W      0.077200
     45 H11         7.0310   -2.8820   -3.9740 hc        1 34W      0.077200
     46 H12         5.6600   -0.9540   -4.9380 h1        1 34W      0.122700
     47 H13         8.2410    2.0270   -1.0860 ha        1 34W      0.145000
     48 H14         8.9750    3.6830   -2.7620 ha        1 34W      0.148000
     49 H15         7.1870    1.3120   -5.9790 ha        1 34W      0.175000
     50 H16         8.6620    4.5300   -4.9850 hn        1 34W      0.451800
     51 H17        10.1730    0.8600   -8.5160 h4        1 34W      0.046100
     52 H18        11.5290    5.1830   -9.8460 hn        1 34W      0.452800
     53 H19         9.9500    6.9140   -8.0370 h1        1 34W      0.089700
     54 H20        10.3230    8.5330   -9.7800 hc        1 34W      0.061450
     55 H21        11.4490    7.4370  -10.6840 hc        1 34W      0.061450
     56 H22        12.2120    9.3810   -8.4680 hc        1 34W      0.059200
     57 H23        13.3330    8.2930   -9.3870 hc        1 34W      0.059200
     58 H24        11.8930    7.6220   -6.7910 hc        1 34W      0.061450
     59 H25        12.9950    6.5300   -7.7310 hc        1 34W      0.061450
     60 H042        1.9520   -0.7380   -0.9990 hn        1 34W      0.475300
@<TRIPOS>BOND
     1    1    2 1   
     2    1   35 1   
     3    1   36 1   
     4    1   37 1   
     5    2    3 2   
     6    2    4 1   
     7    4    5 1   
     8    4   38 1   
     9    4   60 1   
    10    5    6 1   
    11    5   39 1   
    12    5   40 1   
    13    6    7 2   
    14    6    8 1   
    15    8    9 1   
    16    8   12 1   
    17    9   10 1   
    18    9   14 1   
    19    9   41 1   
    20   10   11 1   
    21   10   42 1   
    22   10   43 1   
    23   11   12 1   
    24   11   44 1   
    25   11   45 1   
    26   12   13 1   
    27   12   46 1   
    28   13   14 ar  
    29   13   18 ar  
    30   14   15 ar  
    31   15   16 ar  
    32   15   47 1   
    33   16   17 ar  
    34   16   48 1   
    35   17   18 ar  
    36   17   19 1   
    37   18   49 1   
    38   19   20 1   
    39   19   50 1   
    40   20   21 ar  
    41   20   25 ar  
    42   21   22 ar  
    43   22   23 ar  
    44   22   51 1   
    45   23   24 ar  
    46   23   31 1   
    47   24   25 ar  
    48   24   26 1   
    49   26   27 1   
    50   26   52 1   
    51   27   28 1   
    52   27   30 1   
    53   27   53 1   
    54   28   29 1   
    55   28   54 1   
    56   28   55 1   
    57   29   30 1   
    58   29   56 1   
    59   29   57 1   
    60   30   58 1   
    61   30   59 1   
    62   31   32 1   
    63   31   33 1   
    64   31   34 1   
@<TRIPOS>SUBSTRUCTURE
     1 34W         1 TEMP              0 ****  ****    0 ROOT
