@<TRIPOS>MOLECULE
34W
   60    64     1     0     0
SMALL
bcc


@<TRIPOS>ATOM
      1 C01         0.3920    1.3590   -0.0290 c3        1 34W     -0.191100
      2 C02         1.8600    1.1000    0.0020 c         1 34W      0.554100
      3 O03         2.6880    1.5180    0.7930 o         1 34W     -0.398100
      4 N04         2.3670    0.2010   -1.1090 ny        1 34W     -0.677800
      5 C05         3.8490    0.0600   -1.1640 c3        1 34W      0.007800
      6 C06         4.3090   -0.2960   -2.5990 c         1 34W      0.646100
      7 O07         3.4690   -0.2010   -3.5200 o         1 34W     -0.607100
      8 N08         5.5640   -0.8120   -2.7460 n         1 34W     -0.405800
      9 C09         6.7500   -0.4890   -1.8780 c3        1 34W      0.118000
     10 C10         7.7120   -1.6580   -2.2850 c3        1 34W     -0.072400
     11 C11         7.4000   -1.8590   -3.7850 c3        1 34W     -0.077400
     12 C12         6.3000   -0.7820   -4.0640 c3        1 34W      0.133000
     13 C13         7.0350    0.5550   -3.9690 ca        1 34W     -0.120300
     14 C14         7.3170    0.7420   -2.5790 ca        1 34W     -0.174300
     15 C15         8.0040    1.8510   -2.1490 ca        1 34W     -0.073000
     16 C16         8.4240    2.7870   -3.1070 ca        1 34W     -0.171000
     17 C17         8.1500    2.6140   -4.4790 ca        1 34W      0.171600
     18 C18         7.4230    1.4680   -4.9180 ca        1 34W     -0.070000
     19 N19         8.5210    3.6240   -5.3880 nu        1 34W     -0.721300
     20 C20         9.2670    3.3690   -6.5590 ca        1 34W      0.926900
     21 N21         9.3890    2.0590   -7.0170 nb        1 34W     -0.784000
     22 C22        10.0610    1.9060   -8.1630 ca        1 34W      0.542200
     23 C23        10.6210    2.9650   -8.8930 ca        1 34W     -0.534900
     24 C24        10.4580    4.2960   -8.3620 ca        1 34W      0.785200
     25 N25         9.7930    4.4850   -7.1700 nb        1 34W     -0.815000
     26 N26        10.9410    5.3750   -9.0610 nu        1 34W     -0.832900
     27 C27        10.9170    6.7260   -8.5830 cy        1 34W      0.201500
     28 C28        11.1840    7.8240   -9.6660 cy        1 34W     -0.105400
     29 C29        12.3760    8.3460   -8.8440 cy        1 34W     -0.094400
     30 C30        12.1670    7.2410   -7.7930 cy        1 34W     -0.105400
     31 C31        11.3610    2.7040  -10.1800 c3        1 34W      0.712200
     32 F32        11.4510    1.3810  -10.5370 f         1 34W     -0.236967
     33 F33        10.8190    3.3170  -11.2870 f         1 34W     -0.236967
     34 F34        12.6660    3.1430  -10.1830 f         1 34W     -0.236967
     35 H1          0.1170    1.9500   -0.9410 hc        1 34W      0.117700
     36 H2         -0.1920    0.4050   -0.0190 hc        1 34W      0.117700
     37 H3          0.1190    1.9590    0.8800 hc        1 34W      0.117700
     38 H4          2.0480    0.5740   -2.0250 hn        1 34W      0.475300
     39 H5          4.3240    1.0420   -0.8720 hx        1 34W      0.131700
     40 H6          4.1650   -0.7290   -0.4250 hx        1 34W      0.131700
     41 H7          6.5240   -0.4010   -0.7970 h1        1 34W      0.083700
     42 H8          8.7710   -1.3570   -2.1150 hc        1 34W      0.072200
     43 H9          7.4910   -2.5760   -1.6930 hc        1 34W      0.072200
     44 H10         7.0120   -2.8830   -3.9900 hc        1 34W      0.077200
     45 H11         8.2920   -1.6700   -4.4260 hc        1 34W      0.077200
     46 H12         5.6470   -0.9470   -4.9470 h1        1 34W      0.122700
     47 H13         8.2450    2.0120   -1.0870 ha        1 34W      0.145000
     48 H14         8.9830    3.6710   -2.7590 ha        1 34W      0.148000
     49 H15         7.1820    1.3180   -5.9810 ha        1 34W      0.175000
     50 H16         8.6710    4.5260   -4.9790 hn        1 34W      0.451800
     51 H17        10.1630    0.8620   -8.5240 h4        1 34W      0.046100
     52 H18        11.5330    5.1850   -9.8410 hn        1 34W      0.452800
     53 H19         9.9630    6.9150   -8.0250 h1        1 34W      0.089700
     54 H20        10.3400    8.5390   -9.7620 hc        1 34W      0.061450
     55 H21        11.4610    7.4420  -10.6710 hc        1 34W      0.061450
     56 H22        12.2350    9.3750   -8.4500 hc        1 34W      0.059200
     57 H23        13.3500    8.2860   -9.3740 hc        1 34W      0.059200
     58 H24        13.0080    6.5190   -7.7240 hc        1 34W      0.061450
     59 H25        11.9110    7.6120   -6.7790 hc        1 34W      0.061450
     60 H042        1.9460   -0.7290   -1.0020 hn        1 34W      0.475300
@<TRIPOS>BOND
     1    1    2 1   
     2    1   35 1   
     3    1   36 1   
     4    1   37 1   
     5    2    3 2   
     6    2    4 1   
     7    4    5 1   
     8    4   38 1   
     9    4   60 1   
    10    5    6 1   
    11    5   39 1   
    12    5   40 1   
    13    6    7 2   
    14    6    8 1   
    15    8    9 1   
    16    8   12 1   
    17    9   10 1   
    18    9   14 1   
    19    9   41 1   
    20   10   11 1   
    21   10   42 1   
    22   10   43 1   
    23   11   12 1   
    24   11   44 1   
    25   11   45 1   
    26   12   13 1   
    27   12   46 1   
    28   13   14 ar  
    29   13   18 ar  
    30   14   15 ar  
    31   15   16 ar  
    32   15   47 1   
    33   16   17 ar  
    34   16   48 1   
    35   17   18 ar  
    36   17   19 1   
    37   18   49 1   
    38   19   20 1   
    39   19   50 1   
    40   20   21 ar  
    41   20   25 ar  
    42   21   22 ar  
    43   22   23 ar  
    44   22   51 1   
    45   23   24 ar  
    46   23   31 1   
    47   24   25 ar  
    48   24   26 1   
    49   26   27 1   
    50   26   52 1   
    51   27   28 1   
    52   27   30 1   
    53   27   53 1   
    54   28   29 1   
    55   28   54 1   
    56   28   55 1   
    57   29   30 1   
    58   29   56 1   
    59   29   57 1   
    60   30   58 1   
    61   30   59 1   
    62   31   32 1   
    63   31   33 1   
    64   31   34 1   
@<TRIPOS>SUBSTRUCTURE
     1 34W         1 TEMP              0 ****  ****    0 ROOT
