@<TRIPOS>MOLECULE
34X
   37    32     1     0     0
SMALL
bcc


@<TRIPOS>ATOM
      1 FAP         1.4480   -2.6170    4.4000 f         1 34X     -0.113000
      2 CAO         2.4320   -2.7770    3.5050 c2        1 34X      0.043000
      3 CAN         3.7130   -3.0910    3.9330 c2        1 34X     -0.141000
      4 CAM         4.7140   -3.3350    3.0060 c1        1 34X     -0.121000
      5 CAA         4.4350   -3.2650    1.6500 c1        1 34X     -0.123250
      6 CAB         3.1550   -2.9500    1.2210 c1        1 34X     -0.123250
      7 CAC         2.1530   -2.7060    2.1480 c1        1 34X      0.026000
      8 NAD         0.8180   -2.5010    1.7100 n         1 34X     -0.300000
      9 CAE         0.3670   -1.1930    1.3920 c2        1 34X      0.328000
     10 OAQ         1.1230   -0.2500    1.4950 o         1 34X     -0.356000
     11 NAF        -0.9880   -0.9790    1.0220 n         1 34X     -0.154000
     12 NAG        -1.3540    0.1920    0.3850 n3        1 34X     -0.121000
     13 CAH        -1.1810    0.4660   -0.9110 c1        1 34X     -0.206000
     14 CAR        -2.0570    1.2110    0.9380 c1        1 34X      0.134000
     15 NAW        -2.5020    1.2830    2.2830 n2        1 34X     -0.283000
     16 NAS        -2.3160    2.1190   -0.0350 n2        1 34X     -0.185000
     17 CAI        -1.7810    1.6690   -1.1730 c1        1 34X     -0.018000
     18 CAJ        -1.8860    2.3320   -2.5260 c1        1 34X     -0.006000
     19 CAK        -0.9080    3.2240   -2.9380 c2        1 34X     -0.095000
     20 CAL        -1.0400    3.8870   -4.1480 c1        1 34X     -0.136000
     21 CAV        -2.1500    3.6570   -4.9470 c1        1 34X     -0.123250
     22 CAU        -3.1270    2.7650   -4.5350 c1        1 34X     -0.123250
     23 CAT        -2.9960    2.1030   -3.3240 c1        1 34X     -0.122000
     24 HAN         3.9110   -3.1410    4.8900 ha        1 34X      0.152000
     25 HAM         5.6160   -3.5570    3.3070 ha        1 34X      0.142000
     26 HAA         5.1420   -3.4370    0.9960 ha        1 34X      0.144500
     27 HAB         2.9590   -2.9000    0.2650 ha        1 34X      0.144500
     28 HAD         0.2490   -3.2090    1.6370 hn        1 34X      0.234000
     29 HAF        -1.6200   -1.6020    1.2280 hn        1 34X      0.203000
     30 HAH        -0.7080   -0.0930   -1.5590 DU        1 34X      0.177000
     31 HAW1       -2.1120    0.7590    2.9220 hn        1 34X      0.210500
     32 HAW2       -3.1970    1.8340    2.5070 hn        1 34X      0.210500
     33 HAK        -0.1270    3.3860   -2.3760 ha        1 34X      0.152000
     34 HAT        -3.6850    1.4740   -3.0340 ha        1 34X      0.127000
     35 HAL        -0.3510    4.5150   -4.4390 ha        1 34X      0.132000
     36 HAV        -2.2420    4.1230   -5.7990 ha        1 34X      0.144500
     37 HAU        -3.9080    2.6040   -5.0970 ha        1 34X      0.144500
@<TRIPOS>BOND
     1    1    2 1   
     2    2    3 1   
     3    2    7 1   
     4    3    4 1   
     5    3   24 1   
     6    4   25 1   
     7    5    6 1   
     8    5   26 1   
     9    6   27 1   
    10    7    8 1   
    11    8    9 1   
    12    8   28 1   
    13    9   10 1   
    14    9   11 1   
    15   11   12 1   
    16   11   29 1   
    17   12   13 1   
    18   12   14 1   
    19   13   17 1   
    20   14   16 1   
    21   15   31 1   
    22   15   32 1   
    23   16   17 1   
    24   18   19 1   
    25   18   23 1   
    26   19   20 1   
    27   19   33 1   
    28   20   35 1   
    29   21   22 1   
    30   21   36 1   
    31   22   37 1   
    32   23   34 1   
@<TRIPOS>SUBSTRUCTURE
     1 34X         1 TEMP              0 ****  ****    0 ROOT
