@<TRIPOS>MOLECULE
34X
   37    39     1     0     0
SMALL
bcc


@<TRIPOS>ATOM
      1 FAP         3.9920   -1.9580   -1.6110 f         1 34X     -0.145900
      2 CAO         3.3730   -0.9240   -0.9870 ca        1 34X      0.076900
      3 CAN         3.6650   -0.6660    0.3610 ca        1 34X     -0.140000
      4 CAM         3.0400    0.3880    1.0200 ca        1 34X     -0.124000
      5 CAA         2.1270    1.1900    0.3390 ca        1 34X     -0.120000
      6 CAB         1.8300    0.9560   -1.0010 ca        1 34X     -0.120000
      7 CAC         2.4430   -0.1040   -1.6980 ca        1 34X      0.028600
      8 NAD         2.2190   -0.3480   -3.0670 ns        1 34X     -0.443100
      9 CAE         1.0130   -0.0680   -3.7110 c         1 34X      0.718100
     10 OAQ         0.1000    0.6230   -3.2160 o         1 34X     -0.589100
     11 NAF         0.7420   -0.6510   -5.0270 ns        1 34X     -0.354200
     12 NAG         1.7590   -0.8720   -5.8900 na        1 34X     -0.143500
     13 CAH         2.4430   -2.0910   -6.0420 cc        1 34X     -0.207600
     14 CAR         2.4010    0.0670   -6.7810 cc        1 34X      0.551400
     15 NAW         1.9150    1.3940   -6.8850 nv        1 34X     -0.886500
     16 NAS         3.3970   -0.5480   -7.4690 nd        1 34X     -0.663000
     17 CAI         3.4320   -1.8790   -7.0230 cd        1 34X      0.366800
     18 CAJ         4.3670   -2.8730   -7.5170 ca        1 34X     -0.109500
     19 CAK         5.0300   -2.6970   -8.7400 ca        1 34X     -0.112000
     20 CAL         5.9180   -3.6680   -9.2010 ca        1 34X     -0.132500
     21 CAV         6.1540   -4.8200   -8.4520 ca        1 34X     -0.126000
     22 CAU         5.5000   -5.0000   -7.2330 ca        1 34X     -0.132500
     23 CAT         4.6120   -4.0340   -6.7650 ca        1 34X     -0.112000
     24 HAN         4.3880   -1.3100    0.8830 ha        1 34X      0.152000
     25 HAM         3.2680    0.5830    2.0780 ha        1 34X      0.142000
     26 HAA         1.6300    2.0220    0.8600 ha        1 34X      0.142000
     27 HAB         1.0980    1.6040   -1.5140 ha        1 34X      0.174000
     28 HAD         2.8270   -1.0300   -3.4720 hn        1 34X      0.335500
     29 HAF         0.0150   -0.0980   -5.4780 hn        1 34X      0.325500
     30 HAH         2.1630   -2.9870   -5.4890 h4        1 34X      0.194000
     31 HAW1        1.9600    1.7100   -7.8360 hn        1 34X      0.392300
     32 HAW2        2.4440    2.0040   -6.2890 hn        1 34X      0.392300
     33 HAK         4.8520   -1.7920   -9.3400 ha        1 34X      0.138500
     34 HAT         4.1060   -4.1800   -5.8000 ha        1 34X      0.138500
     35 HAL         6.4330   -3.5220  -10.1620 ha        1 34X      0.132500
     36 HAV         6.8540   -5.5830   -8.8190 ha        1 34X      0.132000
     37 HAU         5.6850   -5.9050   -6.6380 ha        1 34X      0.132500
@<TRIPOS>BOND
     1    1    2 1   
     2    2    3 ar  
     3    2    7 ar  
     4    3    4 ar  
     5    3   24 1   
     6    4    5 ar  
     7    4   25 1   
     8    5    6 ar  
     9    5   26 1   
    10    6    7 ar  
    11    6   27 1   
    12    7    8 1   
    13    8    9 1   
    14    8   28 1   
    15    9   10 2   
    16    9   11 1   
    17   11   12 1   
    18   11   29 1   
    19   12   13 1   
    20   12   14 1   
    21   13   17 2   
    22   13   30 1   
    23   14   15 1   
    24   14   16 2   
    25   15   31 1   
    26   15   32 1   
    27   16   17 1   
    28   17   18 1   
    29   18   19 ar  
    30   18   23 ar  
    31   19   20 ar  
    32   19   33 1   
    33   20   21 ar  
    34   20   35 1   
    35   21   22 ar  
    36   21   36 1   
    37   22   23 ar  
    38   22   37 1   
    39   23   34 1   
@<TRIPOS>SUBSTRUCTURE
     1 34X         1 TEMP              0 ****  ****    0 ROOT
