@<TRIPOS>MOLECULE
34X
   37    39     1     0     0
SMALL
bcc


@<TRIPOS>ATOM
      1 FAP         4.0450   -1.9120   -1.6130 f         1 34X     -0.145900
      2 CAO         3.4200   -0.8780   -0.9920 ca        1 34X      0.076900
      3 CAN         3.7280   -0.6000    0.3480 ca        1 34X     -0.140000
      4 CAM         3.0980    0.4530    1.0030 ca        1 34X     -0.124000
      5 CAA         2.1650    1.2350    0.3250 ca        1 34X     -0.120000
      6 CAB         1.8520    0.9810   -1.0070 ca        1 34X     -0.120000
      7 CAC         2.4690   -0.0790   -1.7000 ca        1 34X      0.028600
      8 NAD         2.2290   -0.3430   -3.0630 n         1 34X     -0.443100
      9 CAE         1.0110   -0.0860   -3.6920 c         1 34X      0.718100
     10 OAQ         0.0960    0.5990   -3.1920 o         1 34X     -0.589100
     11 NAF         0.7290   -0.6880   -4.9970 n         1 34X     -0.354200
     12 NAG         1.7360   -0.9070   -5.8720 na        1 34X     -0.143500
     13 CAH         2.4340   -2.1190   -6.0210 cc        1 34X     -0.207600
     14 CAR         2.3540    0.0300   -6.7820 cc        1 34X      0.551400
     15 NAW         1.8510    1.3500   -6.8950 nh        1 34X     -0.886500
     16 NAS         3.3480   -0.5810   -7.4780 nd        1 34X     -0.663000
     17 CAI         3.4060   -1.9050   -7.0170 cd        1 34X      0.366800
     18 CAJ         4.3470   -2.8940   -7.5130 ca        1 34X     -0.109500
     19 CAK         4.9900   -2.7230   -8.7480 ca        1 34X     -0.112000
     20 CAL         5.8830   -3.6880   -9.2100 ca        1 34X     -0.132500
     21 CAV         6.1440   -4.8290   -8.4520 ca        1 34X     -0.126000
     22 CAU         5.5090   -5.0030   -7.2230 ca        1 34X     -0.132500
     23 CAT         4.6160   -4.0430   -6.7530 ca        1 34X     -0.112000
     24 HAN         4.4670   -1.2280    0.8670 ha        1 34X      0.152000
     25 HAM         3.3390    0.6640    2.0550 ha        1 34X      0.142000
     26 HAA         1.6650    2.0670    0.8440 ha        1 34X      0.142000
     27 HAB         1.1050    1.6130   -1.5170 ha        1 34X      0.174000
     28 HAD         2.8410   -1.0220   -3.4680 hn        1 34X      0.335500
     29 HAF        -0.0110   -0.1510   -5.4450 hn        1 34X      0.325500
     30 HAH         2.1720   -3.0120   -5.4540 h4        1 34X      0.194000
     31 HAW1        2.3810    1.9730   -6.3130 hn        1 34X      0.392300
     32 HAW2        1.8780    1.6550   -7.8490 hn        1 34X      0.392300
     33 HAK         4.7930   -1.8270   -9.3550 ha        1 34X      0.138500
     34 HAT         4.1250   -4.1850   -5.7790 ha        1 34X      0.138500
     35 HAL         6.3840   -3.5470  -10.1800 ha        1 34X      0.132500
     36 HAV         6.8490   -5.5880   -8.8210 ha        1 34X      0.132000
     37 HAU         5.7140   -5.9000   -6.6200 ha        1 34X      0.132500
@<TRIPOS>BOND
     1    1    2 1   
     2    2    3 ar  
     3    2    7 ar  
     4    3    4 ar  
     5    3   24 1   
     6    4    5 ar  
     7    4   25 1   
     8    5    6 ar  
     9    5   26 1   
    10    6    7 ar  
    11    6   27 1   
    12    7    8 1   
    13    8    9 1   
    14    8   28 1   
    15    9   10 2   
    16    9   11 1   
    17   11   12 1   
    18   11   29 1   
    19   12   13 1   
    20   12   14 1   
    21   13   17 2   
    22   13   30 1   
    23   14   15 1   
    24   14   16 2   
    25   15   31 1   
    26   15   32 1   
    27   16   17 1   
    28   17   18 1   
    29   18   19 ar  
    30   18   23 ar  
    31   19   20 ar  
    32   19   33 1   
    33   20   21 ar  
    34   20   35 1   
    35   21   22 ar  
    36   21   36 1   
    37   22   23 ar  
    38   22   37 1   
    39   23   34 1   
@<TRIPOS>SUBSTRUCTURE
     1 34X         1 TEMP              0 ****  ****    0 ROOT
