@<TRIPOS>MOLECULE
34X
   37    39     1     0     0
SMALL
bcc


@<TRIPOS>ATOM
      1 FAP         4.9890   -0.3590   -2.0310 f         1 34X     -0.147900
      2 CAO         4.9510    0.2010   -0.7950 ca        1 34X      0.077900
      3 CAN         6.1470    0.6330   -0.2010 ca        1 34X     -0.141000
      4 CAM         6.1260    1.2090    1.0640 ca        1 34X     -0.121000
      5 CAA         4.9170    1.3630    1.7400 ca        1 34X     -0.122000
      6 CAB         3.7190    0.9490    1.1640 ca        1 34X     -0.111000
      7 CAC         3.7050    0.3580   -0.1140 ca        1 34X      0.018600
      8 NAD         2.5090   -0.0180   -0.7610 n         1 34X     -0.446100
      9 CAE         1.4090   -0.5540   -0.0730 c         1 34X      0.700100
     10 OAQ         1.3000   -0.5030    1.1690 o         1 34X     -0.594100
     11 NAF         0.3960   -1.2650   -0.8610 n         1 34X     -0.340200
     12 NAG        -0.8990   -1.1700   -0.4810 na        1 34X     -0.153500
     13 CAH        -1.8530   -0.2150   -0.9340 cc        1 34X     -0.294600
     14 CAR        -1.4360   -1.6900    0.7680 cc        1 34X      0.678400
     15 NAW        -0.7650   -2.6660    1.5130 nh        1 34X     -0.885500
     16 NAS        -2.6870   -1.1950    0.9840 nd        1 34X     -0.711000
     17 CAI        -2.9480   -0.2930   -0.0660 cd        1 34X      0.416800
     18 CAJ        -4.1970    0.4370   -0.2010 ca        1 34X     -0.113500
     19 CAK        -5.3650   -0.0070    0.4360 ca        1 34X     -0.108500
     20 CAL        -6.5550    0.7030    0.2880 ca        1 34X     -0.135500
     21 CAV        -6.5950    1.8570   -0.4930 ca        1 34X     -0.125000
     22 CAU        -5.4350    2.3050   -1.1270 ca        1 34X     -0.135500
     23 CAT        -4.2420    1.6020   -0.9820 ca        1 34X     -0.108500
     24 HAN         7.0920    0.5040   -0.7490 ha        1 34X      0.152000
     25 HAM         7.0670    1.5410    1.5280 ha        1 34X      0.143000
     26 HAA         4.9020    1.8190    2.7420 ha        1 34X      0.144000
     27 HAB         2.7760    1.0770    1.7220 ha        1 34X      0.174000
     28 HAD         2.6300   -0.2750   -1.7190 hn        1 34X      0.320500
     29 HAF         0.4530   -1.0590   -1.8520 hn        1 34X      0.290500
     30 HAH        -1.7010    0.3610   -1.8430 h4        1 34X      0.178000
     31 HAW1        0.2100   -2.4700    1.6320 hn        1 34X      0.414800
     32 HAW2       -1.2280   -2.8720    2.3750 hn        1 34X      0.414800
     33 HAK        -5.3440   -0.9170    1.0560 ha        1 34X      0.140000
     34 HAT        -3.3290    1.9660   -1.4770 ha        1 34X      0.140000
     35 HAL        -7.4670    0.3480    0.7900 ha        1 34X      0.131000
     36 HAV        -7.5360    2.4140   -0.6090 ha        1 34X      0.130000
     37 HAU        -5.4610    3.2170   -1.7410 ha        1 34X      0.131000
@<TRIPOS>BOND
     1    1    2 1   
     2    2    3 ar  
     3    2    7 ar  
     4    3    4 ar  
     5    3   24 1   
     6    4    5 ar  
     7    4   25 1   
     8    5    6 ar  
     9    5   26 1   
    10    6    7 ar  
    11    6   27 1   
    12    7    8 1   
    13    8    9 1   
    14    8   28 1   
    15    9   10 2   
    16    9   11 1   
    17   11   12 1   
    18   11   29 1   
    19   12   13 1   
    20   12   14 1   
    21   13   17 2   
    22   13   30 1   
    23   14   15 1   
    24   14   16 2   
    25   15   31 1   
    26   15   32 1   
    27   16   17 1   
    28   17   18 1   
    29   18   19 ar  
    30   18   23 ar  
    31   19   20 ar  
    32   19   33 1   
    33   20   21 ar  
    34   20   35 1   
    35   21   22 ar  
    36   21   36 1   
    37   22   23 ar  
    38   22   37 1   
    39   23   34 1   
@<TRIPOS>SUBSTRUCTURE
     1 34X         1 TEMP              0 ****  ****    0 ROOT
