@<TRIPOS>MOLECULE
34X
   37    39     1     0     0
SMALL
bcc


@<TRIPOS>ATOM
      1 FAP         4.1690   -1.8210   -1.6330 f         1 34X     -0.145900
      2 CAO         3.4740   -0.8410   -1.0010 ca        1 34X      0.076900
      3 CAN         3.7890   -0.5290    0.3300 ca        1 34X     -0.140000
      4 CAM         3.0870    0.4700    0.9960 ca        1 34X     -0.124000
      5 CAA         2.0750    1.1650    0.3380 ca        1 34X     -0.120000
      6 CAB         1.7530    0.8780   -0.9850 ca        1 34X     -0.120000
      7 CAC         2.4410   -0.1300   -1.6890 ca        1 34X      0.028600
      8 NAD         2.1920   -0.4220   -3.0440 n         1 34X     -0.443100
      9 CAE         0.9420   -0.2730   -3.6450 c         1 34X      0.718100
     10 OAQ        -0.0170    0.3340   -3.1260 o         1 34X     -0.589100
     11 NAF         0.6820   -0.9050   -4.9410 n         1 34X     -0.354200
     12 NAG         1.6830   -1.0420   -5.8380 na        1 34X     -0.143500
     13 CAH         2.4790   -2.1900   -5.9990 cc        1 34X     -0.207600
     14 CAR         2.1950   -0.0610   -6.7680 cc        1 34X      0.551400
     15 NAW         1.5770    1.2100   -6.8740 nh        1 34X     -0.886500
     16 NAS         3.2210   -0.5880   -7.4840 nd        1 34X     -0.663000
     17 CAI         3.4050   -1.8990   -7.0190 cd        1 34X      0.367800
     18 CAJ         4.4160   -2.8060   -7.5340 ca        1 34X     -0.109500
     19 CAK         5.0120   -2.5890   -8.7850 ca        1 34X     -0.112000
     20 CAL         5.9740   -3.4760   -9.2650 ca        1 34X     -0.132500
     21 CAV         6.3510   -4.5830   -8.5070 ca        1 34X     -0.126000
     22 CAU         5.7640   -4.8030   -7.2610 ca        1 34X     -0.132500
     23 CAT         4.8030   -3.9210   -6.7740 ca        1 34X     -0.112000
     24 HAN         4.5910   -1.0880    0.8330 ha        1 34X      0.152000
     25 HAM         3.3340    0.7070    2.0420 ha        1 34X      0.142000
     26 HAA         1.5170    1.9540    0.8660 ha        1 34X      0.142000
     27 HAB         0.9420    1.4400   -1.4790 ha        1 34X      0.174000
     28 HAD         2.8500   -1.0480   -3.4620 hn        1 34X      0.335500
     29 HAF        -0.1130   -0.4360   -5.3720 hn        1 34X      0.325500
     30 HAH         2.3090   -3.0980   -5.4210 h4        1 34X      0.194000
     31 HAW1        1.5550    1.5100   -7.8300 hn        1 34X      0.392300
     32 HAW2        2.0630    1.8800   -6.3080 hn        1 34X      0.392300
     33 HAK         4.7220   -1.7170   -9.3920 ha        1 34X      0.138500
     34 HAT         4.3500   -4.0980   -5.7870 ha        1 34X      0.138500
     35 HAL         6.4360   -3.2980  -10.2470 ha        1 34X      0.132500
     36 HAV         7.1110   -5.2810   -8.8890 ha        1 34X      0.132000
     37 HAU         6.0610   -5.6740   -6.6590 ha        1 34X      0.132500
@<TRIPOS>BOND
     1    1    2 1   
     2    2    3 ar  
     3    2    7 ar  
     4    3    4 ar  
     5    3   24 1   
     6    4    5 ar  
     7    4   25 1   
     8    5    6 ar  
     9    5   26 1   
    10    6    7 ar  
    11    6   27 1   
    12    7    8 1   
    13    8    9 1   
    14    8   28 1   
    15    9   10 2   
    16    9   11 1   
    17   11   12 1   
    18   11   29 1   
    19   12   13 1   
    20   12   14 1   
    21   13   17 2   
    22   13   30 1   
    23   14   15 1   
    24   14   16 2   
    25   15   31 1   
    26   15   32 1   
    27   16   17 1   
    28   17   18 1   
    29   18   19 ar  
    30   18   23 ar  
    31   19   20 ar  
    32   19   33 1   
    33   20   21 ar  
    34   20   35 1   
    35   21   22 ar  
    36   21   36 1   
    37   22   23 ar  
    38   22   37 1   
    39   23   34 1   
@<TRIPOS>SUBSTRUCTURE
     1 34X         1 TEMP              0 ****  ****    0 ROOT
