@<TRIPOS>MOLECULE
34Z
   14    14     1     0     0
SMALL
bcc


@<TRIPOS>ATOM
      1 CL4        -2.9050    1.0740    0.0010 cl        1 34Z     -0.134400
      2 C4         -1.2320    0.7310    0.0010 ca        1 34Z     -0.000600
      3 C5         -0.3230    1.7940    0.0020 ca        1 34Z     -0.149000
      4 C6          1.0450    1.5350    0.0010 ca        1 34Z     -0.100000
      5 C3         -0.7610   -0.5890    0.0000 ca        1 34Z      0.000400
      6 CL3        -1.8500   -1.9040   -0.0010 cl        1 34Z     -0.129400
      7 C2          0.6140   -0.8410    0.0000 ca        1 34Z     -0.095000
      8 C1          1.5220    0.2200    0.0010 ca        1 34Z     -0.116600
      9 C           3.0230   -0.0530    0.0010 c         1 34Z      0.910200
     10 O2          3.7970    0.9440    0.0010 o         1 34Z     -0.822300
     11 O1          3.4010   -1.2570   -0.0000 o         1 34Z     -0.822300
     12 H5         -0.6920    2.8290    0.0020 ha        1 34Z      0.126000
     13 H6          1.7810    2.3560    0.0020 ha        1 34Z      0.161000
     14 H2          1.0100   -1.8700   -0.0010 ha        1 34Z      0.172000
@<TRIPOS>BOND
     1    1    2 1   
     2    2    3 ar  
     3    2    5 ar  
     4    3    4 ar  
     5    3   12 1   
     6    4    8 ar  
     7    4   13 1   
     8    5    6 1   
     9    5    7 ar  
    10    7    8 ar  
    11    7   14 1   
    12    8    9 1   
    13    9   10 1   
    14    9   11 1   
@<TRIPOS>SUBSTRUCTURE
     1 34Z         1 TEMP              0 ****  ****    0 ROOT
