@<TRIPOS>MOLECULE
34Z
   14    12     1     0     0
SMALL
bcc


@<TRIPOS>ATOM
      1 CL4        -3.5870    0.0620    0.1280 cl        1 34Z     -0.056000
      2 C4         -1.8440    0.0330    0.0890 c2        1 34Z     -0.079000
      3 C5         -1.1240    0.0440    1.2730 c2        1 34Z     -0.149000
      4 C6          0.2620    0.0260    1.2410 c1        1 34Z     -0.100000
      5 C3         -1.1790    0.0020   -1.1270 c1        1 34Z     -0.078000
      6 CL3        -2.0860   -0.0280   -2.6160 cl        1 34Z     -0.051000
      7 C2          0.2060   -0.0160   -1.1590 c2        1 34Z     -0.095000
      8 C1          0.9270   -0.0040    0.0250 c1        1 34Z     -0.096000
      9 C           2.4390   -0.0480   -0.0090 c2        1 34Z      0.359000
     10 O2          3.0350   -1.1550   -0.0670 o         1 34Z     -0.557000
     11 O1          3.1000    1.0220    0.0340 o         1 34Z     -0.557000
     12 H5         -1.5920    0.0660    2.1290 ha        1 34Z      0.126000
     13 H6          0.7690    0.0340    2.0750 ha        1 34Z      0.161000
     14 H2          0.6740   -0.0380   -2.0150 ha        1 34Z      0.172000
@<TRIPOS>BOND
     1    1    2 1   
     2    2    3 1   
     3    2    5 1   
     4    3    4 1   
     5    3   12 1   
     6    4   13 1   
     7    5    7 1   
     8    7    8 1   
     9    7   14 1   
    10    8    9 1   
    11    9   10 1   
    12    9   11 1   
@<TRIPOS>SUBSTRUCTURE
     1 34Z         1 TEMP              0 ****  ****    0 ROOT
