@<TRIPOS>MOLECULE
351
   68    73     1     0     0
SMALL
bcc


@<TRIPOS>ATOM
      1 N1          0.0050   -0.7780   -0.0770 nz        1 351     -0.847600
      2 C2          1.3240   -0.0650    0.0630 c3        1 351      0.183100
      3 C3          1.7400   -0.0100    1.4860 ca        1 351     -0.225300
      4 C4          2.5450   -1.0230    2.0240 ca        1 351     -0.087000
      5 C5          2.9630   -0.9540    3.3470 ca        1 351     -0.130000
      6 C6          2.5870    0.1300    4.1610 cp        1 351      0.068000
      7 C7          1.7830    1.1450    3.6100 ca        1 351     -0.130000
      8 C8          1.3660    1.0770    2.2870 ca        1 351     -0.087000
      9 C9          3.0240    0.2050    5.5450 cp        1 351     -0.243300
     10 C10         3.1420   -0.9900    6.3190 ca        1 351      0.437200
     11 N11         3.5250   -1.0500    7.5940 nb        1 351     -0.657000
     12 C12         3.8300    0.1550    8.1670 ca        1 351      0.440800
     13 N13         4.2500    0.4080    9.4760 na        1 351     -0.271100
     14 C14         4.4410    1.7840    9.6170 cc        1 351     -0.078100
     15 C15         4.1520    2.4490    8.4200 cd        1 351     -0.064400
     16 C16         4.2410    3.8730    8.1920 ca        1 351     -0.003800
     17 C17         4.7140    4.3700    6.9700 ca        1 351     -0.151000
     18 C18         4.7990    5.7440    6.7690 ca        1 351     -0.108000
     19 C19         4.4180    6.6420    7.7610 ca        1 351     -0.133000
     20 C20         3.9460    6.1610    9.0010 ca        1 351      0.076600
     21 N21         3.4890    7.0160   10.0220 ns        1 351     -0.466100
     22 C22         4.0290    8.3040   10.2550 c         1 351      0.768100
     23 O23         4.7700    8.8620    9.4170 o         1 351     -0.609100
     24 N24         3.7020    8.9100   11.4870 ns        1 351     -0.447100
     25 C25         3.9290   10.2790   11.7350 ca        1 351      0.049600
     26 C26         5.0800   10.9530   11.2770 ca        1 351     -0.122000
     27 C27         5.3010   12.2850   11.6140 ca        1 351     -0.118000
     28 C28         4.4000   12.9820   12.4170 ca        1 351     -0.129000
     29 C29         3.2570   12.3430   12.8890 ca        1 351     -0.130000
     30 C30         3.0190   11.0100   12.5480 ca        1 351      0.048100
     31 O31         1.9440   10.3130   13.1050 os        1 351     -0.269200
     32 C32         0.6800   10.8580   12.8850 ca        1 351      0.104100
     33 C33         0.3710   11.6870   11.8020 ca        1 351     -0.163500
     34 C34        -0.9440   12.1200   11.6380 ca        1 351     -0.103500
     35 C35        -1.9330   11.7310   12.5400 ca        1 351     -0.151000
     36 C36        -1.6120   10.9040   13.6180 ca        1 351     -0.103500
     37 C37        -0.3050   10.4620   13.8050 ca        1 351     -0.163500
     38 C38         3.8660    4.7630    9.2040 ca        1 351     -0.176000
     39 C39         3.7540    1.4370    7.4660 ca        1 351     -0.189100
     40 C40         3.3340    1.4320    6.1400 ca        1 351     -0.008000
     41 HN1        -0.2820   -0.8130   -1.0580 hn        1 351      0.455467
     42 HN1A        0.0880   -1.7320    0.2870 hn        1 351      0.455467
     43 H2          1.1910    0.9710   -0.3650 hx        1 351      0.109700
     44 H2A         2.0760   -0.6280   -0.5620 hx        1 351      0.109700
     45 H4          2.8670   -1.8680    1.3950 ha        1 351      0.136500
     46 H5          3.6120   -1.7450    3.7570 ha        1 351      0.162500
     47 H7          1.4810    2.0010    4.2360 ha        1 351      0.162500
     48 H8          0.7510    1.8890    1.8680 ha        1 351      0.136500
     49 H10         2.8890   -1.9670    5.8660 h4        1 351      0.022100
     50 HN13        4.4100   -0.2780   10.1690 hn        1 351      0.321700
     51 H14         4.7820    2.2000   10.5690 h4        1 351      0.185000
     52 H17         5.0350    3.6720    6.1830 ha        1 351      0.131000
     53 H18         5.1800    6.1330    5.8120 ha        1 351      0.137000
     54 H19         4.5010    7.7260    7.5750 ha        1 351      0.178000
     55 HN21        3.0630    6.5470   10.7920 hn        1 351      0.310500
     56 HN24        2.9330    8.5330   12.0040 hn        1 351      0.323500
     57 H26         5.8070   10.4260   10.6350 ha        1 351      0.171000
     58 H27         6.2050   12.7900   11.2400 ha        1 351      0.142000
     59 H28         4.5900   14.0330   12.6810 ha        1 351      0.142000
     60 H29         2.5310   12.8740   13.5240 ha        1 351      0.153000
     61 H33         1.1580   11.9950   11.0980 ha        1 351      0.149000
     62 H34        -1.1970   12.7750   10.7910 ha        1 351      0.137500
     63 H35        -2.9680   12.0780   12.4050 ha        1 351      0.137000
     64 H36        -2.3940   10.6010   14.3310 ha        1 351      0.137500
     65 H37        -0.0350    9.8150   14.6510 ha        1 351      0.149000
     66 H38         3.4980    4.3560   10.1590 ha        1 351      0.130000
     67 H40         3.2630    2.3760    5.5770 ha        1 351      0.149000
     68 H13        -0.7110   -0.2880    0.4690 hn        1 351      0.455467
@<TRIPOS>BOND
     1    1    2 1   
     2    1   41 1   
     3    1   42 1   
     4    1   68 1   
     5    2    3 1   
     6    2   43 1   
     7    2   44 1   
     8    3    4 ar  
     9    3    8 ar  
    10    4    5 ar  
    11    4   45 1   
    12    5    6 ar  
    13    5   46 1   
    14    6    7 ar  
    15    6    9 1   
    16    7    8 ar  
    17    7   47 1   
    18    8   48 1   
    19    9   10 ar  
    20    9   40 ar  
    21   10   11 ar  
    22   10   49 1   
    23   11   12 ar  
    24   12   13 1   
    25   12   39 ar  
    26   13   14 1   
    27   13   50 1   
    28   14   15 2   
    29   14   51 1   
    30   15   16 1   
    31   15   39 1   
    32   16   17 ar  
    33   16   38 ar  
    34   17   18 ar  
    35   17   52 1   
    36   18   19 ar  
    37   18   53 1   
    38   19   20 ar  
    39   19   54 1   
    40   20   21 1   
    41   20   38 ar  
    42   21   22 1   
    43   21   55 1   
    44   22   23 2   
    45   22   24 1   
    46   24   25 1   
    47   24   56 1   
    48   25   26 ar  
    49   25   30 ar  
    50   26   27 ar  
    51   26   57 1   
    52   27   28 ar  
    53   27   58 1   
    54   28   29 ar  
    55   28   59 1   
    56   29   30 ar  
    57   29   60 1   
    58   30   31 1   
    59   31   32 1   
    60   32   33 ar  
    61   32   37 ar  
    62   33   34 ar  
    63   33   61 1   
    64   34   35 ar  
    65   34   62 1   
    66   35   36 ar  
    67   35   63 1   
    68   36   37 ar  
    69   36   64 1   
    70   37   65 1   
    71   38   66 1   
    72   39   40 ar  
    73   40   67 1   
@<TRIPOS>SUBSTRUCTURE
     1 351         1 TEMP              0 ****  ****    0 ROOT
