@<TRIPOS>MOLECULE
351
   67    56     1     0     0
SMALL
bcc


@<TRIPOS>ATOM
      1 N1        -11.2640    0.4980    1.1000 n3        1 351     -0.333000
      2 C2        -10.0050    0.8370    0.4770 c3        1 351     -0.050000
      3 C3         -8.9100   -0.0680    1.0180 c2        1 351     -0.121000
      4 C4         -8.6530   -1.2840    0.4040 c2        1 351     -0.127000
      5 C5         -7.5870   -2.0550    0.8200 c1        1 351     -0.120000
      6 C6         -6.7700   -1.6130    1.8530 c1        1 351     -0.070500
      7 C7         -7.0250   -0.4000    2.4660 c1        1 351     -0.080000
      8 C8         -8.0940    0.3730    2.0510 c1        1 351     -0.118000
      9 C9         -5.6370   -2.3560    2.2150 c1        1 351     -0.070500
     10 C10        -5.2370   -2.9920    3.3870 c1        1 351     -0.080000
     11 N11        -3.9040   -3.0930    3.6930 n1        1 351     -0.142000
     12 C12        -2.9460   -2.5580    2.8300 c1        1 351      0.029000
     13 N13        -1.5540   -2.4390    2.9360 n1        1 351     -0.195000
     14 C14        -1.1040   -1.7410    1.8480 c1        1 351     -0.061000
     15 C15        -2.2060   -1.4200    1.0560 c2        1 351     -0.103000
     16 C16        -1.4490   -0.3270    0.5440 c1        1 351      0.026000
     17 C17        -1.8270    0.9840    0.8410 c1        1 351     -0.128667
     18 C18        -1.0370    2.0390    0.4330 c1        1 351     -0.128667
     19 C19         0.1450    1.7950   -0.2770 c1        1 351     -0.150000
     20 C20         0.5220    0.4930   -0.5730 c1        1 351      0.091000
     21 N21         1.8140    0.2350   -1.1410 n2        1 351     -0.336000
     22 C22         2.8800    1.1240   -0.8950 c2        1 351      0.410000
     23 O23         2.7060    2.0900   -0.2140 o         1 351     -0.374000
     24 N24         4.2030    0.8340   -1.4160 n         1 351     -0.307000
     25 C25         5.3180    1.7230   -1.1080 c2        1 351      0.071000
     26 C26         5.0900    3.0780   -0.9270 c2        1 351     -0.130000
     27 C27         6.1750    3.9610   -0.8030 c1        1 351     -0.114000
     28 C28         7.4710    3.4770   -0.8620 c1        1 351     -0.128667
     29 C29         7.7000    2.1060   -1.0450 c1        1 351     -0.128667
     30 C30         6.6350    1.2360   -1.1680 c1        1 351     -0.009000
     31 O31         6.8710   -0.1720   -1.2870 os        1 351     -0.176000
     32 C32         8.0220   -0.4010   -2.1330 c2        1 351      0.060000
     33 C33         9.2710   -0.6040   -1.5600 c2        1 351     -0.151000
     34 C34        10.3450   -0.9650   -2.3520 c1        1 351     -0.106000
     35 C35        10.1740   -1.1250   -3.7250 c1        1 351     -0.128667
     36 C36         8.9300   -0.9220   -4.2950 c1        1 351     -0.128667
     37 C37         7.8530   -0.5600   -3.5000 c1        1 351     -0.180000
     38 C38        -0.2740   -0.5680   -0.1630 c2        1 351     -0.182000
     39 C39        -3.3390   -1.9290    1.6720 c1        1 351     -0.104000
     40 C40        -4.6920   -1.8270    1.3610 c1        1 351     -0.036000
     41 HN1       -11.1190    0.2500    1.9700 hn        1 351      0.142500
     42 HN1A      -11.6540   -0.1980    0.6440 hn        1 351      0.142500
     43 H2        -10.0780    0.7150   -0.4990 h1        1 351      0.099000
     44 H2A        -9.7840    1.7730    0.6740 h1        1 351      0.099000
     45 H4         -9.2310   -1.5980   -0.3290 ha        1 351      0.131000
     46 H5         -7.4040   -2.9160    0.3840 ha        1 351      0.136000
     47 H7         -6.4450   -0.0870    3.1990 ha        1 351      0.149000
     48 H8         -8.2750    1.2340    2.4860 ha        1 351      0.134000
     49 H10        -5.9130   -3.3730    3.9960 ha        1 351      0.149000
     50 HN13       -1.0270   -2.7760    3.6250 DU        1 351      0.217000
     51 H14        -0.1530   -1.5540    1.6280 DU        1 351      0.217000
     52 H17        -2.6480    1.1540    1.3340 ha        1 351      0.138667
     53 H18        -1.3000    2.9510    0.6400 ha        1 351      0.138667
     54 H19         0.7080    2.5480   -0.5680 ha        1 351      0.172000
     55 HN21        1.9630   -0.5350   -1.5890 hn        1 351      0.232000
     56 HN24        4.3500    0.0540   -1.8910 hn        1 351      0.232000
     57 H26         4.1840    3.4150   -0.8860 ha        1 351      0.176000
     58 H27         6.0160    4.9120   -0.6760 ha        1 351      0.139000
     59 H28         8.2300    4.0950   -0.7760 ha        1 351      0.138667
     60 H29         8.6130    1.7660   -1.0860 ha        1 351      0.138667
     61 H33         9.3900   -0.4920   -0.5990 ha        1 351      0.149000
     62 H34        11.2300   -1.1090   -1.9450 ha        1 351      0.136000
     63 H35        10.9410   -1.3830   -4.2910 ha        1 351      0.138667
     64 H36         8.8100   -1.0340   -5.2560 ha        1 351      0.138667
     65 H37         6.9740   -0.4170   -3.9030 ha        1 351      0.150000
     66 H38        -0.0120   -1.4750   -0.3690 ha        1 351      0.128000
     67 H40        -4.9760   -1.3820    0.5210 ha        1 351      0.149000
@<TRIPOS>BOND
     1    1    2 1   
     2    1   41 1   
     3    1   42 1   
     4    2    3 1   
     5    2   43 1   
     6    2   44 1   
     7    3    4 1   
     8    3    8 1   
     9    4    5 1   
    10    4   45 1   
    11    5   46 1   
    12    6    7 1   
    13    7   47 1   
    14    8   48 1   
    15    9   10 1   
    16   10   49 1   
    17   11   12 1   
    18   13   14 1   
    19   14   15 1   
    20   15   16 1   
    21   15   39 1   
    22   16   38 1   
    23   17   18 1   
    24   17   52 1   
    25   18   53 1   
    26   19   20 1   
    27   19   54 1   
    28   20   38 1   
    29   21   22 1   
    30   21   55 1   
    31   22   23 1   
    32   22   24 1   
    33   24   25 1   
    34   24   56 1   
    35   25   26 1   
    36   25   30 1   
    37   26   27 1   
    38   26   57 1   
    39   27   58 1   
    40   28   29 1   
    41   28   59 1   
    42   29   60 1   
    43   30   31 1   
    44   31   32 1   
    45   32   33 1   
    46   32   37 1   
    47   33   34 1   
    48   33   61 1   
    49   34   62 1   
    50   35   36 1   
    51   35   63 1   
    52   36   64 1   
    53   37   65 1   
    54   38   66 1   
    55   39   40 1   
    56   40   67 1   
@<TRIPOS>SUBSTRUCTURE
     1 351         1 TEMP              0 ****  ****    0 ROOT
