@<TRIPOS>MOLECULE
351
   67    72     1     0     0
SMALL
bcc


@<TRIPOS>ATOM
      1 N1         -9.2200    5.0880    0.4290 n3        1 351     -0.916800
      2 C2         -9.2150    4.0250   -0.5500 c3        1 351      0.203100
      3 C3         -8.3130    2.8780   -0.1990 ca        1 351     -0.092300
      4 C4         -8.3400    2.3140    1.0810 ca        1 351     -0.116500
      5 C5         -7.5230    1.2290    1.3880 ca        1 351     -0.124500
      6 C6         -6.6650    0.6870    0.4200 cp        1 351     -0.026000
      7 C7         -6.6420    1.2560   -0.8620 ca        1 351     -0.124500
      8 C8         -7.4580    2.3420   -1.1670 ca        1 351     -0.116500
      9 C9         -5.8100   -0.4500    0.7390 cp        1 351     -0.179300
     10 C10        -6.3130   -1.5050    1.5590 ca        1 351      0.425200
     11 N11        -5.6310   -2.5900    1.9290 nb        1 351     -0.669000
     12 C12        -4.3490   -2.6550    1.4560 ca        1 351      0.419800
     13 N13        -3.3940   -3.6570    1.6870 na        1 351     -0.281100
     14 C14        -2.2270   -3.3110    1.0110 cc        1 351     -0.088100
     15 C15        -2.3880   -2.0940    0.3370 cd        1 351     -0.080400
     16 C16        -1.3870   -1.4350   -0.4680 ca        1 351      0.012200
     17 C17        -1.7470   -0.7470   -1.6360 ca        1 351     -0.143000
     18 C18        -0.7690   -0.1260   -2.4050 ca        1 351     -0.109000
     19 C19         0.5730   -0.1670   -2.0350 ca        1 351     -0.136000
     20 C20         0.9540   -0.8550   -0.8650 ca        1 351      0.063600
     21 N21         2.2860   -0.8740   -0.4010 n         1 351     -0.462100
     22 C22         3.4010   -0.9110   -1.2650 c         1 351      0.769100
     23 O23         3.2960   -0.6850   -2.4900 o         1 351     -0.611100
     24 N24         4.6480   -1.2240   -0.6720 n         1 351     -0.455100
     25 C25         5.8720   -1.0380   -1.3380 ca        1 351      0.064600
     26 C26         6.0340   -1.2650   -2.7220 ca        1 351     -0.131000
     27 C27         7.2850   -1.1420   -3.3170 ca        1 351     -0.111000
     28 C28         8.4100   -0.8030   -2.5660 ca        1 351     -0.142000
     29 C29         8.2850   -0.5770   -1.1990 ca        1 351     -0.117000
     30 C30         7.0320   -0.6860   -0.5920 ca        1 351      0.033100
     31 O31         6.9250   -0.5880    0.7980 os        1 351     -0.266200
     32 C32         7.0780    0.6890    1.3350 ca        1 351      0.106100
     33 C33         7.0190    1.8660    0.5810 ca        1 351     -0.167500
     34 C34         7.1410    3.0910    1.2340 ca        1 351     -0.101500
     35 C35         7.3170    3.1410    2.6160 ca        1 351     -0.156000
     36 C36         7.3760    1.9590    3.3570 ca        1 351     -0.101500
     37 C37         7.2610    0.7230    2.7270 ca        1 351     -0.167500
     38 C38        -0.0400   -1.4920   -0.0900 ca        1 351     -0.177000
     39 C39        -3.7370   -1.6440    0.6020 ca        1 351     -0.181100
     40 C40        -4.5030   -0.5290    0.2600 ca        1 351     -0.038000
     41 HN1        -8.2910    5.3200    0.7190 hn        1 351      0.352800
     42 HN1A       -9.6620    5.9020    0.0510 hn        1 351      0.352800
     43 H2        -10.2730    3.6320   -0.6170 h1        1 351      0.034200
     44 H2A        -8.9380    4.3960   -1.5830 h1        1 351      0.034200
     45 H4         -9.0110    2.7310    1.8480 ha        1 351      0.140500
     46 H5         -7.5450    0.7990    2.4010 ha        1 351      0.134500
     47 H7         -5.9790    0.8360   -1.6330 ha        1 351      0.134500
     48 H8         -7.4280    2.7760   -2.1770 ha        1 351      0.140500
     49 H10        -7.3530   -1.4550    1.9340 h4        1 351      0.027100
     50 HN13       -3.5450   -4.4780    2.2120 hn        1 351      0.311700
     51 H14        -1.3510   -3.9630    1.0470 h4        1 351      0.172000
     52 H17        -2.8020   -0.7130   -1.9440 ha        1 351      0.137000
     53 H18        -1.0550    0.4090   -3.3240 ha        1 351      0.136000
     54 H19         1.3290    0.3280   -2.6660 ha        1 351      0.169000
     55 HN21        2.3970   -1.2440    0.5180 hn        1 351      0.310500
     56 HN24        4.7200   -1.1670    0.3230 hn        1 351      0.322500
     57 H26         5.1590   -1.5290   -3.3410 ha        1 351      0.174000
     58 H27         7.3830   -1.3190   -4.3990 ha        1 351      0.139000
     59 H28         9.3940   -0.7150   -3.0500 ha        1 351      0.139000
     60 H29         9.1580   -0.3090   -0.5850 ha        1 351      0.149000
     61 H33         6.8830    1.8220   -0.5090 ha        1 351      0.149000
     62 H34         7.0950    4.0230    0.6510 ha        1 351      0.135500
     63 H35         7.4110    4.1120    3.1240 ha        1 351      0.135000
     64 H36         7.5180    2.0000    4.4480 ha        1 351      0.135500
     65 H37         7.3080   -0.2160    3.2960 ha        1 351      0.149000
     66 H38         0.2280   -2.0330    0.8320 ha        1 351      0.128000
     67 H40        -4.0770    0.2720   -0.3640 ha        1 351      0.148000
@<TRIPOS>BOND
     1    1    2 1   
     2    1   41 1   
     3    1   42 1   
     4    2    3 1   
     5    2   43 1   
     6    2   44 1   
     7    3    4 ar  
     8    3    8 ar  
     9    4    5 ar  
    10    4   45 1   
    11    5    6 ar  
    12    5   46 1   
    13    6    7 ar  
    14    6    9 1   
    15    7    8 ar  
    16    7   47 1   
    17    8   48 1   
    18    9   10 ar  
    19    9   40 ar  
    20   10   11 ar  
    21   10   49 1   
    22   11   12 ar  
    23   12   13 1   
    24   12   39 ar  
    25   13   14 1   
    26   13   50 1   
    27   14   15 2   
    28   14   51 1   
    29   15   16 1   
    30   15   39 1   
    31   16   17 ar  
    32   16   38 ar  
    33   17   18 ar  
    34   17   52 1   
    35   18   19 ar  
    36   18   53 1   
    37   19   20 ar  
    38   19   54 1   
    39   20   21 1   
    40   20   38 ar  
    41   21   22 1   
    42   21   55 1   
    43   22   23 2   
    44   22   24 1   
    45   24   25 1   
    46   24   56 1   
    47   25   26 ar  
    48   25   30 ar  
    49   26   27 ar  
    50   26   57 1   
    51   27   28 ar  
    52   27   58 1   
    53   28   29 ar  
    54   28   59 1   
    55   29   30 ar  
    56   29   60 1   
    57   30   31 1   
    58   31   32 1   
    59   32   33 ar  
    60   32   37 ar  
    61   33   34 ar  
    62   33   61 1   
    63   34   35 ar  
    64   34   62 1   
    65   35   36 ar  
    66   35   63 1   
    67   36   37 ar  
    68   36   64 1   
    69   37   65 1   
    70   38   66 1   
    71   39   40 ar  
    72   40   67 1   
@<TRIPOS>SUBSTRUCTURE
     1 351         1 TEMP              0 ****  ****    0 ROOT
