@<TRIPOS>MOLECULE
351
   68    73     1     0     0
SMALL
bcc


@<TRIPOS>ATOM
      1 N1          0.0010   -0.8010   -0.0600 n4        1 351     -0.847600
      2 C2          1.3160   -0.0800    0.0720 c3        1 351      0.183100
      3 C3          1.7390   -0.0210    1.4920 ca        1 351     -0.225300
      4 C4          2.5530   -1.0280    2.0270 ca        1 351     -0.087000
      5 C5          2.9780   -0.9550    3.3480 ca        1 351     -0.130000
      6 C6          2.6000    0.1270    4.1630 cp        1 351      0.068000
      7 C7          1.7870    1.1370    3.6160 ca        1 351     -0.130000
      8 C8          1.3630    1.0650    2.2950 ca        1 351     -0.087000
      9 C9          3.0440    0.2050    5.5440 cp        1 351     -0.243300
     10 C10         3.1740   -0.9870    6.3190 ca        1 351      0.437200
     11 N11         3.5640   -1.0440    7.5920 nb        1 351     -0.657000
     12 C12         3.8650    0.1640    8.1620 ca        1 351      0.440800
     13 N13         4.2900    0.4200    9.4690 na        1 351     -0.271100
     14 C14         4.4730    1.7970    9.6070 cc        1 351     -0.078100
     15 C15         4.1730    2.4600    8.4120 cd        1 351     -0.064400
     16 C16         4.2510    3.8830    8.1820 ca        1 351     -0.003800
     17 C17         4.7140    4.3830    6.9570 ca        1 351     -0.151000
     18 C18         4.7890    5.7570    6.7550 ca        1 351     -0.108000
     19 C19         4.4080    6.6540    7.7480 ca        1 351     -0.133000
     20 C20         3.9460    6.1710    8.9910 ca        1 351      0.076600
     21 N21         3.4890    7.0230   10.0140 n         1 351     -0.466100
     22 C22         4.0230    8.3150   10.2430 c         1 351      0.768100
     23 O23         4.7550    8.8780    9.4000 o         1 351     -0.609100
     24 N24         3.7000    8.9190   11.4770 n         1 351     -0.447100
     25 C25         3.9200   10.2900   11.7220 ca        1 351      0.049600
     26 C26         5.0640   10.9710   11.2570 ca        1 351     -0.122000
     27 C27         5.2790   12.3040   11.5920 ca        1 351     -0.118000
     28 C28         4.3800   12.9960   12.4020 ca        1 351     -0.129000
     29 C29         3.2440   12.3500   12.8820 ca        1 351     -0.130000
     30 C30         3.0110   11.0150   12.5420 ca        1 351      0.048100
     31 O31         1.9440   10.3120   13.1060 os        1 351     -0.269200
     32 C32         0.6750   10.8490   12.8950 ca        1 351      0.104100
     33 C33         0.3550   11.6760   11.8130 ca        1 351     -0.163500
     34 C34        -0.9640   12.1020   11.6590 ca        1 351     -0.103500
     35 C35        -1.9450   11.7060   12.5670 ca        1 351     -0.151000
     36 C36        -1.6110   10.8820   13.6430 ca        1 351     -0.103500
     37 C37        -0.3000   10.4480   13.8220 ca        1 351     -0.163500
     38 C38         3.8760    4.7730    9.1950 ca        1 351     -0.176000
     39 C39         3.7760    1.4440    7.4610 ca        1 351     -0.189100
     40 C40         3.3490    1.4350    6.1370 ca        1 351     -0.008000
     41 HN1        -0.7150   -0.3150    0.4890 hn        1 351      0.455467
     42 HN1A       -0.2910   -0.8390   -1.0400 hn        1 351      0.455467
     43 H2          1.1740    0.9550   -0.3560 hx        1 351      0.109700
     44 H2A         2.0680   -0.6390   -0.5570 hx        1 351      0.109700
     45 H4          2.8780   -1.8720    1.3980 ha        1 351      0.137000
     46 H5          3.6340   -1.7420    3.7550 ha        1 351      0.162500
     47 H7          1.4820    1.9910    4.2420 ha        1 351      0.162500
     48 H8          0.7410    1.8730    1.8790 ha        1 351      0.137000
     49 H10         2.9250   -1.9660    5.8680 h4        1 351      0.022100
     50 HN13        4.4580   -0.2640   10.1610 hn        1 351      0.321700
     51 H14         4.8170    2.2170   10.5570 h4        1 351      0.185000
     52 H17         5.0350    3.6870    6.1680 ha        1 351      0.131000
     53 H18         5.1620    6.1480    5.7950 ha        1 351      0.137000
     54 H19         4.4830    7.7380    7.5600 ha        1 351      0.178000
     55 HN21        3.0710    6.5520   10.7870 hn        1 351      0.310500
     56 HN24        2.9360    8.5380   11.9980 hn        1 351      0.323500
     57 H26         5.7890   10.4480   10.6100 ha        1 351      0.171000
     58 H27         6.1780   12.8140   11.2120 ha        1 351      0.142000
     59 H28         4.5650   14.0480   12.6650 ha        1 351      0.142000
     60 H29         2.5190   12.8760   13.5220 ha        1 351      0.153000
     61 H33         1.1340   11.9890   11.1040 ha        1 351      0.149000
     62 H34        -1.2270   12.7540   10.8130 ha        1 351      0.137500
     63 H35        -2.9820   12.0470   12.4390 ha        1 351      0.137000
     64 H36        -2.3860   10.5750   14.3620 ha        1 351      0.137500
     65 H37        -0.0210    9.8020   14.6660 ha        1 351      0.149000
     66 H38         3.5170    4.3640   10.1530 ha        1 351      0.130000
     67 H40         3.2690    2.3780    5.5740 ha        1 351      0.149000
     68 H13         0.0920   -1.7550    0.3050 hn        1 351      0.455467
@<TRIPOS>BOND
     1    1    2 1   
     2    1   41 1   
     3    1   42 1   
     4    1   68 1   
     5    2    3 1   
     6    2   43 1   
     7    2   44 1   
     8    3    4 ar  
     9    3    8 ar  
    10    4    5 ar  
    11    4   45 1   
    12    5    6 ar  
    13    5   46 1   
    14    6    7 ar  
    15    6    9 1   
    16    7    8 ar  
    17    7   47 1   
    18    8   48 1   
    19    9   10 ar  
    20    9   40 ar  
    21   10   11 ar  
    22   10   49 1   
    23   11   12 ar  
    24   12   13 1   
    25   12   39 ar  
    26   13   14 1   
    27   13   50 1   
    28   14   15 2   
    29   14   51 1   
    30   15   16 1   
    31   15   39 1   
    32   16   17 ar  
    33   16   38 ar  
    34   17   18 ar  
    35   17   52 1   
    36   18   19 ar  
    37   18   53 1   
    38   19   20 ar  
    39   19   54 1   
    40   20   21 1   
    41   20   38 ar  
    42   21   22 1   
    43   21   55 1   
    44   22   23 2   
    45   22   24 1   
    46   24   25 1   
    47   24   56 1   
    48   25   26 ar  
    49   25   30 ar  
    50   26   27 ar  
    51   26   57 1   
    52   27   28 ar  
    53   27   58 1   
    54   28   29 ar  
    55   28   59 1   
    56   29   30 ar  
    57   29   60 1   
    58   30   31 1   
    59   31   32 1   
    60   32   33 ar  
    61   32   37 ar  
    62   33   34 ar  
    63   33   61 1   
    64   34   35 ar  
    65   34   62 1   
    66   35   36 ar  
    67   35   63 1   
    68   36   37 ar  
    69   36   64 1   
    70   37   65 1   
    71   38   66 1   
    72   39   40 ar  
    73   40   67 1   
@<TRIPOS>SUBSTRUCTURE
     1 351         1 TEMP              0 ****  ****    0 ROOT
