@<TRIPOS>MOLECULE
351
   70    75     1     0     0
SMALL
bcc


@<TRIPOS>ATOM
      1 N1          0.7990   -0.9930   -0.3420 n4        1 351     -0.842600
      2 C2          1.8330    0.0350    0.0100 c3        1 351      0.170100
      3 C3          1.9390    0.2310    1.4830 ca        1 351     -0.188300
      4 C4          2.6210   -0.7100    2.2650 ca        1 351     -0.090500
      5 C5          2.7590   -0.5120    3.6350 ca        1 351     -0.114000
      6 C6          2.2260    0.6360    4.2460 cp        1 351      0.016000
      7 C7          1.5580    1.5820    3.4550 ca        1 351     -0.114000
      8 C8          1.4100    1.3790    2.0840 ca        1 351     -0.090500
      9 C9          2.3560    0.8110    5.6890 cp        1 351     -0.183300
     10 C10         2.0760   -0.3090    6.5340 ca        1 351      0.442200
     11 N11         2.1580   -0.3040    7.8630 nb        1 351     -0.623000
     12 C12         2.5620    0.8800    8.4120 ca        1 351      0.432800
     13 N13         2.7400    1.1610    9.7800 na        1 351     -0.242100
     14 C14         3.1640    2.4670    9.9010 cc        1 351     -0.035100
     15 C15         3.2730    3.0800    8.6340 cd        1 351     -0.156400
     16 C16         3.7380    4.4210    8.4190 ca        1 351      0.073200
     17 C17         4.3890    4.7830    7.2210 ca        1 351     -0.064000
     18 C18         4.8630    6.0760    7.0240 ca        1 351     -0.086000
     19 C19         4.7260    7.0490    8.0140 ca        1 351     -0.109000
     20 C20         4.0770    6.6930    9.2090 ca        1 351     -0.068400
     21 N21         3.8890    7.7150   10.2490 n4        1 351     -0.479200
     22 C22         5.0470    7.7900   11.1960 c         1 351      0.470100
     23 O23         6.0080    7.0430   11.1440 o         1 351     -0.291100
     24 N24         5.0000    8.8560   12.2610 n4        1 351     -0.483200
     25 C25         4.5760   10.1620   11.7700 ca        1 351     -0.181400
     26 C26         5.5330   11.1690   11.5130 ca        1 351     -0.061000
     27 C27         5.1050   12.4460   11.1790 ca        1 351     -0.115000
     28 C28         3.7370   12.7460   11.1040 ca        1 351     -0.002000
     29 C29         2.7810   11.7600   11.3390 ca        1 351     -0.153000
     30 C30         3.1910   10.4640   11.6670 ca        1 351      0.147100
     31 O31         2.3330    9.3970   11.8630 os        1 351     -0.350200
     32 C32         0.9920    9.7070   12.1720 ca        1 351      0.016100
     33 C33         0.0630    9.8020   11.1300 ca        1 351     -0.126500
     34 C34        -1.2820    9.9700   11.4590 ca        1 351     -0.098000
     35 C35        -1.6760   10.0520   12.7970 ca        1 351     -0.080000
     36 C36        -0.7300    9.9670   13.8210 ca        1 351     -0.098000
     37 C37         0.6220    9.7980   13.5180 ca        1 351     -0.126500
     38 C38         3.5830    5.3940    9.4220 ca        1 351     -0.125000
     39 C39         2.8850    2.0840    7.6550 ca        1 351     -0.171100
     40 C40         2.7490    2.0180    6.2640 ca        1 351     -0.041000
     41 HN1         0.7760   -1.1380   -1.3570 hn        1 351      0.462800
     42 HN1A        1.0180   -1.8820    0.1200 hn        1 351      0.462800
     43 H2          2.8190   -0.3240   -0.4120 hx        1 351      0.118200
     44 H2A         1.5460    0.9970   -0.5080 hx        1 351      0.118200
     45 H4          3.0690   -1.6030    1.7990 ha        1 351      0.147500
     46 H5          3.3000   -1.2560    4.2430 ha        1 351      0.160000
     47 H7          1.1360    2.4870    3.9210 ha        1 351      0.160000
     48 H8          0.8820    2.1330    1.4780 ha        1 351      0.147500
     49 H10         1.7540   -1.2720    6.0880 h4        1 351      0.047100
     50 HN13        2.6120    0.5070   10.5150 hn        1 351      0.341700
     51 H14         3.3890    2.8850   10.8870 h4        1 351      0.173000
     52 H17         4.5430    4.0180    6.4400 ha        1 351      0.180000
     53 H18         5.3700    6.3410    6.0780 ha        1 351      0.184000
     54 H19         5.1240    8.0610    7.8380 ha        1 351      0.159000
     55 HN21        3.0240    7.5130   10.7880 hn        1 351      0.500300
     56 HN24        4.3360    8.5530   12.9990 hn        1 351      0.506300
     57 H26         6.6150   10.9620   11.5910 ha        1 351      0.175000
     58 H27         5.8520   13.2390   10.9860 ha        1 351      0.200000
     59 H28         3.4130   13.7770   10.8580 ha        1 351      0.200000
     60 H29         1.7010   11.9890   11.2870 ha        1 351      0.202000
     61 H33         0.3810    9.7450   10.0810 ha        1 351      0.144500
     62 H34        -2.0360   10.0450   10.6570 ha        1 351      0.173000
     63 H35        -2.7430   10.1910   13.0470 ha        1 351      0.178000
     64 H36        -1.0480   10.0380   14.8750 ha        1 351      0.173000
     65 H37         1.3730    9.7390   14.3190 ha        1 351      0.144500
     66 H38         3.0660    5.1200   10.3560 ha        1 351      0.153000
     67 H40         2.9470    2.8960    5.6320 ha        1 351      0.139000
     68 H13        -0.1270   -0.6860   -0.0260 hn        1 351      0.462800
     69 H212        3.7710    8.6430    9.8010 hn        1 351      0.500300
     70 H242        5.9520    8.9290   12.6710 hn        1 351      0.506300
@<TRIPOS>BOND
     1    1    2 1   
     2    1   41 1   
     3    1   42 1   
     4    1   68 1   
     5    2    3 1   
     6    2   43 1   
     7    2   44 1   
     8    3    4 ar  
     9    3    8 ar  
    10    4    5 ar  
    11    4   45 1   
    12    5    6 ar  
    13    5   46 1   
    14    6    7 ar  
    15    6    9 1   
    16    7    8 ar  
    17    7   47 1   
    18    8   48 1   
    19    9   10 ar  
    20    9   40 ar  
    21   10   11 ar  
    22   10   49 1   
    23   11   12 ar  
    24   12   13 1   
    25   12   39 ar  
    26   13   14 1   
    27   13   50 1   
    28   14   15 2   
    29   14   51 1   
    30   15   16 1   
    31   15   39 1   
    32   16   17 ar  
    33   16   38 ar  
    34   17   18 ar  
    35   17   52 1   
    36   18   19 ar  
    37   18   53 1   
    38   19   20 ar  
    39   19   54 1   
    40   20   21 1   
    41   20   38 ar  
    42   21   22 1   
    43   21   55 1   
    44   21   69 1   
    45   22   23 2   
    46   22   24 1   
    47   24   25 1   
    48   24   56 1   
    49   24   70 1   
    50   25   26 ar  
    51   25   30 ar  
    52   26   27 ar  
    53   26   57 1   
    54   27   28 ar  
    55   27   58 1   
    56   28   29 ar  
    57   28   59 1   
    58   29   30 ar  
    59   29   60 1   
    60   30   31 1   
    61   31   32 1   
    62   32   33 ar  
    63   32   37 ar  
    64   33   34 ar  
    65   33   61 1   
    66   34   35 ar  
    67   34   62 1   
    68   35   36 ar  
    69   35   63 1   
    70   36   37 ar  
    71   36   64 1   
    72   37   65 1   
    73   38   66 1   
    74   39   40 ar  
    75   40   67 1   
@<TRIPOS>SUBSTRUCTURE
     1 351         1 TEMP              0 ****  ****    0 ROOT
