@<TRIPOS>MOLECULE
352
   41    42     1     0     0
SMALL
bcc


@<TRIPOS>ATOM
      1 C1          1.5020   -0.4260   -0.0960 c3        1 352      0.178800
      2 C2          1.6700   -1.9050    0.2360 c3        1 352     -0.138100
      3 C3         -4.9090   -4.3390    2.6720 ca        1 352     -0.071500
      4 C4         -6.0040   -4.7600    3.4170 ca        1 352     -0.162000
      5 C5         -6.0800   -4.4340    4.7860 ca        1 352      0.190900
      6 C6         -5.0500   -3.6860    5.3950 ca        1 352     -0.162000
      7 C7         -3.9610   -3.2790    4.6360 ca        1 352     -0.071500
      8 C8         -3.8810   -3.6000    3.2750 ca        1 352     -0.219300
      9 N9         -2.8110   -1.6940    2.1760 ny        1 352     -0.722000
     10 C10        -2.6980   -3.1970    2.4530 c3        1 352      0.212800
     11 C11        -1.8510   -1.2130    1.1740 c2        1 352      0.493100
     12 S12        -0.6440   -0.0790    1.6490 ss        1 352     -0.089300
     13 C13         0.0130   -0.0090   -0.0640 c3        1 352     -0.049900
     14 C14        -0.8670   -0.9900   -0.8660 c         1 352      0.683500
     15 N15        -1.8990   -1.6220   -0.0700 ne        1 352     -0.599100
     16 O16        -0.7490   -1.2160   -2.0630 o         1 352     -0.402100
     17 C17        -0.1840    1.4000   -0.5730 c3        1 352     -0.097100
     18 F18        -7.1390   -4.8360    5.5160 f         1 352     -0.101900
     19 C19        -1.3770   -3.5420    3.1170 c3        1 352     -0.128100
     20 O20         2.1180    0.3690    0.9170 oh        1 352     -0.605800
     21 C21         2.1230   -0.1260   -1.4570 c3        1 352     -0.138100
     22 H2          1.2020   -2.5340   -0.5590 hc        1 352      0.063533
     23 H2A         2.7580   -2.1540    0.2930 hc        1 352      0.063533
     24 H2B         1.2080   -2.1410    1.2240 hc        1 352      0.063533
     25 H3         -4.8510   -4.6050    1.6030 ha        1 352      0.146500
     26 H4         -6.8100   -5.3490    2.9500 ha        1 352      0.177500
     27 H6         -5.1170   -3.4410    6.4670 ha        1 352      0.177500
     28 H7         -3.1530   -2.7120    5.1250 ha        1 352      0.146500
     29 HN9        -3.7720   -1.5060    1.8510 hn        1 352      0.468300
     30 H10        -2.7450   -3.7020    1.4370 hx        1 352      0.128700
     31 H17        -1.2180    1.7640   -0.3600 hc        1 352      0.079033
     32 H17A        0.5530    2.0850   -0.0840 hc        1 352      0.079033
     33 H17B       -0.0190    1.4270   -1.6810 hc        1 352      0.079033
     34 H19        -1.2530   -3.0330    4.1040 hc        1 352      0.080033
     35 H19A       -0.5120   -3.2780    2.4590 hc        1 352      0.080033
     36 H19B       -1.3610   -4.6490    3.2920 hc        1 352      0.080033
     37 HO20        3.0740    0.2900    0.8010 ho        1 352      0.433000
     38 H21         2.2300    0.9770   -1.5980 hc        1 352      0.063533
     39 H21A        1.4900   -0.5430   -2.2780 hc        1 352      0.063533
     40 H21B        3.1370   -0.5920   -1.5160 hc        1 352      0.063533
     41 H92        -2.6510   -1.1810    3.0520 hn        1 352      0.468300
@<TRIPOS>BOND
     1    1    2 1   
     2    1   13 1   
     3    1   20 1   
     4    1   21 1   
     5    2   22 1   
     6    2   23 1   
     7    2   24 1   
     8    3    4 ar  
     9    3    8 ar  
    10    3   25 1   
    11    4    5 ar  
    12    4   26 1   
    13    5    6 ar  
    14    5   18 1   
    15    6    7 ar  
    16    6   27 1   
    17    7    8 ar  
    18    7   28 1   
    19    8   10 1   
    20    9   10 1   
    21    9   11 1   
    22    9   29 1   
    23    9   41 1   
    24   10   19 1   
    25   10   30 1   
    26   11   12 1   
    27   11   15 2   
    28   12   13 1   
    29   13   14 1   
    30   13   17 1   
    31   14   15 1   
    32   14   16 2   
    33   17   31 1   
    34   17   32 1   
    35   17   33 1   
    36   19   34 1   
    37   19   35 1   
    38   19   36 1   
    39   20   37 1   
    40   21   38 1   
    41   21   39 1   
    42   21   40 1   
@<TRIPOS>SUBSTRUCTURE
     1 352         1 TEMP              0 ****  ****    0 ROOT
