@<TRIPOS>MOLECULE
352
   41    42     1     0     0
SMALL
bcc


@<TRIPOS>ATOM
      1 C1          1.4990   -0.4270   -0.1030 c3        1 352      0.178800
      2 C2          1.6530   -1.9150    0.1930 c3        1 352     -0.138100
      3 C3         -4.9240   -4.3210    2.6590 ca        1 352     -0.071500
      4 C4         -6.0150   -4.7450    3.4070 ca        1 352     -0.162000
      5 C5         -6.0720   -4.4500    4.7840 ca        1 352      0.190900
      6 C6         -5.0250   -3.7280    5.3980 ca        1 352     -0.162000
      7 C7         -3.9400   -3.3170    4.6360 ca        1 352     -0.071500
      8 C8         -3.8800   -3.6080    3.2660 ca        1 352     -0.219300
      9 N9         -2.7990   -1.6910    2.1980 n4        1 352     -0.722000
     10 C10        -2.7020   -3.2010    2.4390 c3        1 352      0.212800
     11 C11        -1.8470   -1.2000    1.1940 c2        1 352      0.493100
     12 S12        -0.6190   -0.0920    1.6790 ss        1 352     -0.089300
     13 C13         0.0170    0.0090   -0.0410 c3        1 352     -0.049900
     14 C14        -0.8860   -0.9430   -0.8530 c         1 352      0.683500
     15 N15        -1.9170   -1.5790   -0.0580 ne        1 352     -0.599100
     16 O16        -0.7880   -1.1420   -2.0570 o         1 352     -0.402100
     17 C17        -0.1690    1.4310   -0.5150 c3        1 352     -0.097100
     18 F18        -7.1270   -4.8550    5.5180 f         1 352     -0.101900
     19 C19        -1.3770   -3.5760    3.0800 c3        1 352     -0.128100
     20 O20         2.1400    0.3370    0.9200 oh        1 352     -0.605800
     21 C21         2.1060   -0.1040   -1.4650 c3        1 352     -0.138100
     22 H2          2.7380   -2.1790    0.2300 hc        1 352      0.063533
     23 H2A         1.1660   -2.5200   -0.6090 hc        1 352      0.063533
     24 H2B         1.2010   -2.1670    1.1820 hc        1 352      0.063533
     25 H3         -4.8820   -4.5630    1.5840 ha        1 352      0.146500
     26 H4         -6.8340   -5.3140    2.9370 ha        1 352      0.177500
     27 H6         -5.0760   -3.5070    6.4760 ha        1 352      0.177500
     28 H7         -3.1190   -2.7710    5.1270 ha        1 352      0.146500
     29 HN9        -2.6220   -1.1990    3.0830 hn        1 352      0.467800
     30 H10        -2.7660   -3.6820    1.4130 hx        1 352      0.127700
     31 H17         0.5850    2.0950   -0.0200 hc        1 352      0.079033
     32 H17A       -0.0180    1.4820   -1.6240 hc        1 352      0.079033
     33 H17B       -1.1950    1.8040   -0.2800 hc        1 352      0.079033
     34 H19        -0.5170   -3.3080    2.4180 hc        1 352      0.080033
     35 H19A       -1.2360   -3.0910    4.0760 hc        1 352      0.080033
     36 H19B       -1.3730   -4.6870    3.2310 hc        1 352      0.080033
     37 HO20        3.0930    0.2480    0.7890 ho        1 352      0.433000
     38 H21         3.1130   -0.5810   -1.5480 hc        1 352      0.063533
     39 H21A        1.4570   -0.4930   -2.2860 hc        1 352      0.063533
     40 H21B        2.2260    1.0000   -1.5820 hc        1 352      0.063533
     41 H92        -3.7620   -1.4840    1.8900 hn        1 352      0.467800
@<TRIPOS>BOND
     1    1    2 1   
     2    1   13 1   
     3    1   20 1   
     4    1   21 1   
     5    2   22 1   
     6    2   23 1   
     7    2   24 1   
     8    3    4 ar  
     9    3    8 ar  
    10    3   25 1   
    11    4    5 ar  
    12    4   26 1   
    13    5    6 ar  
    14    5   18 1   
    15    6    7 ar  
    16    6   27 1   
    17    7    8 ar  
    18    7   28 1   
    19    8   10 1   
    20    9   10 1   
    21    9   11 1   
    22    9   29 1   
    23    9   41 1   
    24   10   19 1   
    25   10   30 1   
    26   11   12 1   
    27   11   15 2   
    28   12   13 1   
    29   13   14 1   
    30   13   17 1   
    31   14   15 1   
    32   14   16 2   
    33   17   31 1   
    34   17   32 1   
    35   17   33 1   
    36   19   34 1   
    37   19   35 1   
    38   19   36 1   
    39   20   37 1   
    40   21   38 1   
    41   21   39 1   
    42   21   40 1   
@<TRIPOS>SUBSTRUCTURE
     1 352         1 TEMP              0 ****  ****    0 ROOT
