@<TRIPOS>MOLECULE
352
   41    42     1     0     0
SMALL
bcc


@<TRIPOS>ATOM
      1 C1          1.4920   -0.4140   -0.1040 c3        1 352      0.178800
      2 C2          1.6670   -1.8930    0.2260 c3        1 352     -0.138100
      3 C3         -4.8970   -4.3520    2.6790 ca        1 352     -0.071500
      4 C4         -5.9890   -4.7770    3.4260 ca        1 352     -0.162000
      5 C5         -6.0630   -4.4520    4.7960 ca        1 352      0.190900
      6 C6         -5.0330   -3.7000    5.4030 ca        1 352     -0.162000
      7 C7         -3.9480   -3.2880    4.6410 ca        1 352     -0.071500
      8 C8         -3.8710   -3.6090    3.2790 ca        1 352     -0.219300
      9 N9         -2.8100   -1.6990    2.1790 n4        1 352     -0.722000
     10 C10        -2.6920   -3.2020    2.4540 c3        1 352      0.212800
     11 C11        -1.8540   -1.2140    1.1750 c2        1 352      0.493100
     12 S12        -0.6500   -0.0760    1.6470 ss        1 352     -0.089300
     13 C13         0.0030   -0.0020   -0.0670 c3        1 352     -0.049900
     14 C14        -0.8760   -0.9860   -0.8680 c         1 352      0.683500
     15 N15        -1.9050   -1.6210   -0.0690 ne        1 352     -0.599100
     16 O16        -0.7620   -1.2100   -2.0660 o         1 352     -0.402100
     17 C17        -0.2020    1.4070   -0.5740 c3        1 352     -0.097100
     18 F18        -7.1180   -4.8570    5.5290 f         1 352     -0.101900
     19 C19        -1.3670   -3.5430    3.1140 c3        1 352     -0.128100
     20 O20         2.1090    0.3820    0.9080 oh        1 352     -0.605800
     21 C21         2.1080   -0.1100   -1.4670 c3        1 352     -0.138100
     22 H2          1.1990   -2.5230   -0.5680 hc        1 352      0.063533
     23 H2A         1.2080   -2.1310    1.2150 hc        1 352      0.063533
     24 H2B         2.7560   -2.1370    0.2790 hc        1 352      0.063533
     25 H3         -4.8420   -4.6170    1.6100 ha        1 352      0.146500
     26 H4         -6.7940   -5.3690    2.9620 ha        1 352      0.177500
     27 H6         -5.0980   -3.4550    6.4750 ha        1 352      0.177500
     28 H7         -3.1400   -2.7180    5.1270 ha        1 352      0.146500
     29 HN9        -2.6490   -1.1860    3.0550 hn        1 352      0.468300
     30 H10        -2.7390   -3.7050    1.4380 hx        1 352      0.127700
     31 H17         0.5350    2.0940   -0.0870 hc        1 352      0.079033
     32 H17A       -0.0400    1.4360   -1.6830 hc        1 352      0.079033
     33 H17B       -1.2360    1.7670   -0.3570 hc        1 352      0.079033
     34 H19        -1.2420   -3.0350    4.1010 hc        1 352      0.080033
     35 H19A       -1.3470   -4.6500    3.2880 hc        1 352      0.080033
     36 H19B       -0.5050   -3.2760    2.4540 hc        1 352      0.080033
     37 HO20        3.0650    0.3070    0.7890 ho        1 352      0.433000
     38 H21         1.4740   -0.5280   -2.2860 hc        1 352      0.063533
     39 H21A        3.1240   -0.5720   -1.5300 hc        1 352      0.063533
     40 H21B        2.2110    0.9930   -1.6070 hc        1 352      0.063533
     41 H92        -3.7720   -1.5130    1.8580 hn        1 352      0.468300
@<TRIPOS>BOND
     1    1    2 1   
     2    1   13 1   
     3    1   20 1   
     4    1   21 1   
     5    2   22 1   
     6    2   23 1   
     7    2   24 1   
     8    3    4 ar  
     9    3    8 ar  
    10    3   25 1   
    11    4    5 ar  
    12    4   26 1   
    13    5    6 ar  
    14    5   18 1   
    15    6    7 ar  
    16    6   27 1   
    17    7    8 ar  
    18    7   28 1   
    19    8   10 1   
    20    9   10 1   
    21    9   11 1   
    22    9   29 1   
    23    9   41 1   
    24   10   19 1   
    25   10   30 1   
    26   11   12 1   
    27   11   15 2   
    28   12   13 1   
    29   13   14 1   
    30   13   17 1   
    31   14   15 1   
    32   14   16 2   
    33   17   31 1   
    34   17   32 1   
    35   17   33 1   
    36   19   34 1   
    37   19   35 1   
    38   19   36 1   
    39   20   37 1   
    40   21   38 1   
    41   21   39 1   
    42   21   40 1   
@<TRIPOS>SUBSTRUCTURE
     1 352         1 TEMP              0 ****  ****    0 ROOT
