@<TRIPOS>MOLECULE
353
   55    46     1     0     0
SMALL
bcc


@<TRIPOS>ATOM
      1 C1          4.9950   -0.2610   -3.4910 c1        1 353     -0.068833
      2 C2          5.7010    1.3840   -1.8910 c1        1 353     -0.060500
      3 C3         -1.1070   -0.2720    2.2510 c1        1 353     -0.068833
      4 C4         -2.0800   -0.9080    3.0120 c1        1 353     -0.068833
      5 C5          6.3070   -0.4150   -3.9110 c1        1 353     -0.068833
      6 C6          7.0130    1.2300   -2.3110 c1        1 353     -0.101500
      7 C7         -3.2270   -4.3100    3.9670 c1        1 353     -0.231500
      8 C8         -1.7920   -1.5310    0.3230 c1        1 353     -0.140500
      9 C9         -3.6210   -5.4540    4.6450 c1        1 353      0.384300
     10 C10         4.6920    0.6380   -2.4820 cg        1 353      0.064000
     11 C11        -0.9630   -0.5840    0.9060 c1        1 353      0.123200
     12 C12        -2.9070   -1.8540    2.4280 c1        1 353     -0.015400
     13 C13        -4.1450   -3.3440    3.6710 c1        1 353      0.182600
     14 C14         7.3160    0.3300   -3.3210 c1        1 353      0.101100
     15 C15        -2.7650   -2.1670    1.0850 c1        1 353      0.129100
     16 C16        -5.4490   -3.5040    4.0440 c1        1 353     -0.120100
     17 C17        -5.8390   -4.6490    4.7210 c1        1 353      0.206800
     18 C18         1.9880    3.3290   -3.1560 c1        1 353     -0.068833
     19 C19         3.2860    2.5530   -3.2350 c1        1 353     -0.068833
     20 C20         1.0930    1.6500   -1.4670 cg        1 353     -0.283200
     21 C21         0.9140    2.8750   -2.2590 c1        1 353      0.270600
     22 C22         2.3610    0.8340   -1.6180 c1        1 353      0.817900
     23 C23        -0.0430    1.1350   -0.5990 c         1 353      0.663300
     24 C24        -1.2590    5.8390   -2.0250 c3        1 353     -0.103100
     25 C25        -0.0180    5.0420   -2.3820 c3        1 353      0.128400
     26 N26        -4.9230   -5.6130    5.0160 n1        1 353     -0.541800
     27 N27         3.4600    1.3350   -2.4440 ne        1 353     -0.465400
     28 N28        -7.0450   -5.1840    5.2510 n3        1 353     -0.797400
     29 N29         0.1300   -0.0470    0.1660 n         1 353     -0.470700
     30 O30         2.4560   -0.2460   -1.0710 o         1 353     -0.602500
     31 O31        -1.1210    1.6870   -0.6220 o         1 353     -0.574100
     32 O32        -4.1860   -2.1340    2.9500 os        1 353     -0.187200
     33 O33        -0.2180    3.6860   -2.0520 os        1 353     -0.273400
     34 F34         8.6050    0.0070   -3.4870 f         1 353     -0.100100
     35 F35        -3.6210   -2.7730    0.2510 f         1 353     -0.089100
     36 CL36       -6.6140   -2.2540    3.7010 cl        1 353     -0.080900
     37 H1          4.2830   -0.7860   -3.9070 ha        1 353      0.102167
     38 H2          5.4880    2.0160   -1.1800 ha        1 353      0.084500
     39 H3         -0.5240    0.3950    2.6620 ha        1 353      0.102167
     40 H4         -2.1810   -0.6880    3.9600 ha        1 353      0.102167
     41 H5          6.5190   -1.0470   -4.6210 ha        1 353      0.102167
     42 H6          7.7240    1.7550   -1.8950 ha        1 353      0.098500
     43 H7         -2.2950   -4.1970    3.7010 ha        1 353      0.103500
     44 H8         -1.6920   -1.7520   -0.6230 ha        1 353      0.132500
     45 H9         -2.9650   -6.1450    4.8560 ha        1 353      0.104500
     46 H18         1.8730    4.1410   -3.6840 ha        1 353      0.102167
     47 H19         4.0000    2.8540   -3.8300 ha        1 353      0.102167
     48 H24        -1.3010    6.6450   -2.5820 hc        1 353      0.058033
     49 H24A       -2.0560    5.2910   -2.1830 hc        1 353      0.058033
     50 H24B       -1.2210    6.0960   -1.0790 hc        1 353      0.058033
     51 H25         0.7490    5.3900   -1.8810 h1        1 353      0.043700
     52 H25A        0.1570    5.1220   -3.3410 h1        1 353      0.043700
     53 HN28       -7.0390   -5.9960    5.6730 hn        1 353      0.420300
     54 HN2A       -7.8270   -4.7170    5.1700 hn        1 353      0.420300
     55 HN29        0.9360   -0.4280    0.2220 hn        1 353      0.337500
@<TRIPOS>BOND
     1    1    5 3   
     2    1   37 1   
     3    2   10 3   
     4    2   38 1   
     5    3    4 3   
     6    3   39 1   
     7    4   40 1   
     8    5   41 1   
     9    6   14 3   
    10    6   42 1   
    11    7   13 3   
    12    7   43 1   
    13    8   11 3   
    14    8   44 1   
    15    9   26 3   
    16    9   45 1   
    17   10   27 1   
    18   11   29 1   
    19   12   15 3   
    20   12   32 1   
    21   13   32 1   
    22   14   34 1   
    23   15   35 1   
    24   16   17 3   
    25   16   36 1   
    26   17   28 1   
    27   18   19 3   
    28   18   46 1   
    29   19   47 1   
    30   20   21 3   
    31   20   23 1   
    32   21   33 1   
    33   22   27 2   
    34   22   30 2   
    35   23   29 1   
    36   23   31 2   
    37   24   25 1   
    38   24   48 1   
    39   24   49 1   
    40   24   50 1   
    41   25   33 1   
    42   25   51 1   
    43   25   52 1   
    44   28   53 1   
    45   28   54 1   
    46   29   55 1   
@<TRIPOS>SUBSTRUCTURE
     1 353         1 TEMP              0 ****  ****    0 ROOT
