@<TRIPOS>MOLECULE
353
   55    58     1     0     0
SMALL
bcc


@<TRIPOS>ATOM
      1 C1         -5.4400   -2.1650   -0.8980 ca        1 353     -0.094500
      2 C2         -6.8010   -1.2760    0.9140 ca        1 353     -0.094500
      3 C3          1.2990   -0.6740   -1.1520 ca        1 353     -0.190000
      4 C4          2.6750   -0.8330   -1.1940 ca        1 353     -0.083000
      5 C5         -6.1750   -3.3440   -0.8710 ca        1 353     -0.157500
      6 C6         -7.5410   -2.4500    0.9390 ca        1 353     -0.157500
      7 C7          4.9600   -1.4430    1.1060 ca        1 353     -0.355300
      8 C8          1.5650    1.4710   -0.0250 ca        1 353     -0.194000
      9 C9          5.7680   -2.2530    1.9150 ca        1 353      0.467200
     10 C10        -5.7480   -1.1140   -0.0110 ca        1 353      0.003600
     11 C11         0.7200    0.4830   -0.5680 ca        1 353      0.105600
     12 C12         3.5130    0.1470   -0.6530 ca        1 353      0.006100
     13 C13         5.5720   -0.7780    0.0350 ca        1 353      0.199100
     14 C14        -7.2330   -3.4920    0.0440 ca        1 353      0.134900
     15 C15         2.9590    1.3030   -0.0620 ca        1 353      0.161900
     16 C16         6.9490   -0.9460   -0.2010 ca        1 353     -0.196900
     17 C17         7.6860   -1.8100    0.6780 ca        1 353      0.674200
     18 C18        -5.0810    2.5190    0.0060 cc        1 353     -0.278000
     19 C19        -5.7060    1.3000   -0.0110 cd        1 353      0.045600
     20 C20        -2.9160    1.3990    0.0290 cd        1 353     -0.316400
     21 C21        -3.6510    2.5640    0.0190 cc        1 353      0.271100
     22 C22        -3.5850    0.1010   -0.0730 c         1 353      0.717700
     23 C23        -1.4370    1.4520    0.2110 c         1 353      0.713300
     24 C24        -2.5580    5.9420    0.7430 c3        1 353     -0.102100
     25 C25        -3.0410    4.5650    1.1270 c3        1 353      0.137400
     26 N26         7.0800   -2.4420    1.7400 nb        1 353     -0.742000
     27 N27        -5.0100    0.1080   -0.0420 n         1 353     -0.252200
     28 N28         9.0280   -2.0770    0.4240 nh        1 353     -0.934500
     29 N29        -0.6750    0.6160   -0.5970 n         1 353     -0.452100
     30 O31        -0.9380    2.2420    1.0350 o         1 353     -0.589100
     31 O32         4.8940    0.0710   -0.8250 os        1 353     -0.220200
     32 O33        -3.0240    3.7860   -0.0910 os        1 353     -0.343900
     33 F34        -7.9540   -4.6370    0.0670 f         1 353     -0.131900
     34 F35         3.7590    2.2590    0.4610 f         1 353     -0.120900
     35 CL36        7.7360   -0.1610   -1.4820 cl        1 353     -0.068400
     36 H1         -4.5970   -2.0690   -1.6030 ha        1 353      0.155000
     37 H2         -7.0440   -0.4770    1.6320 ha        1 353      0.155000
     38 H3          0.6580   -1.4610   -1.5810 ha        1 353      0.145000
     39 H4          3.1210   -1.7280   -1.6540 ha        1 353      0.155000
     40 H5         -5.9310   -4.1660   -1.5600 ha        1 353      0.157500
     41 H6         -8.3630   -2.5770    1.6590 ha        1 353      0.157500
     42 H8          1.1550    2.3830    0.4410 ha        1 353      0.189000
     43 H9          5.3310   -2.7900    2.7800 h4        1 353      0.025100
     44 H18        -5.6550    3.4540   -0.0030 ha        1 353      0.170000
     45 H19        -6.8110    1.2180   -0.0160 h4        1 353      0.167000
     46 H24        -1.5450    5.8810    0.2760 hc        1 353      0.052033
     47 H24A       -3.2540    6.4170    0.0120 hc        1 353      0.052033
     48 H24B       -2.5000    6.5750    1.6610 hc        1 353      0.052033
     49 H25        -2.3450    4.0690    1.8560 h1        1 353      0.052200
     50 H25A       -4.0830    4.5910    1.5380 h1        1 353      0.052200
     51 HN28        9.5180   -1.3830   -0.0920 hn        1 353      0.421300
     52 HN2A        9.5450   -2.5220    1.1480 hn        1 353      0.421300
     53 HN29       -1.1660   -0.1160   -1.0730 hn        1 353      0.340500
     54 O30        -2.9890   -0.9880   -0.1910 o         1 353     -0.643500
     55 H7          3.8880   -1.3280    1.3080 ha        1 353      0.161000
@<TRIPOS>BOND
     1    1    5 ar  
     2    1   10 ar  
     3    1   36 1   
     4    2    6 ar  
     5    2   10 ar  
     6    2   37 1   
     7    3    4 ar  
     8    3   11 ar  
     9    3   38 1   
    10    4   12 ar  
    11    4   39 1   
    12    5   14 ar  
    13    5   40 1   
    14    6   14 ar  
    15    6   41 1   
    16    7    9 ar  
    17    7   13 ar  
    18    7   55 1   
    19    8   11 ar  
    20    8   15 ar  
    21    8   42 1   
    22    9   26 ar  
    23    9   43 1   
    24   10   27 1   
    25   11   29 1   
    26   12   15 ar  
    27   12   31 1   
    28   13   16 ar  
    29   13   31 1   
    30   14   33 1   
    31   15   34 1   
    32   16   17 ar  
    33   16   35 1   
    34   17   26 ar  
    35   17   28 1   
    36   18   19 2   
    37   18   21 1   
    38   18   44 1   
    39   19   27 1   
    40   19   45 1   
    41   20   21 2   
    42   20   22 1   
    43   20   23 1   
    44   21   32 1   
    45   22   27 1   
    46   22   54 2   
    47   23   29 1   
    48   23   30 2   
    49   24   25 1   
    50   24   46 1   
    51   24   47 1   
    52   24   48 1   
    53   25   32 1   
    54   25   49 1   
    55   25   50 1   
    56   28   51 1   
    57   28   52 1   
    58   29   53 1   
@<TRIPOS>SUBSTRUCTURE
     1 353         1 TEMP              0 ****  ****    0 ROOT
