@<TRIPOS>MOLECULE
353
   55    58     1     0     0
SMALL
bcc


@<TRIPOS>ATOM
      1 C1          0.4310    0.3240    0.1180 ce        1 353     -0.005000
      2 C2         -0.2470   -1.5160    1.7800 cf        1 353     -0.170100
      3 C3         -4.0470    5.8870   -0.4360 ca        1 353     -0.191000
      4 C4         -4.5850    7.0500   -0.9650 ca        1 353     -0.082000
      5 C5          1.7570   -0.1410   -0.1920 ce        1 353     -0.225000
      6 C6         -1.4210   -1.8510    2.4340 c1        1 353     -0.193800
      7 C7         -6.6540    9.3370    0.2000 ca        1 353     -0.357300
      8 C8         -6.2270    4.8030   -0.5640 ca        1 353     -0.195000
      9 C9         -6.9970   10.5220    0.8660 ca        1 353      0.467200
     10 C10        -0.4490   -0.3210    0.9210 cf        1 353     -0.059400
     11 C11        -4.8620    4.7430   -0.2240 ca        1 353      0.102600
     12 C12        -5.9410    7.1090   -1.2990 ca        1 353      0.008100
     13 C13        -6.7420    9.3280   -1.1980 ca        1 353      0.199100
     14 C14         2.0960   -1.4460   -0.3090 c2        1 353      0.115500
     15 C15        -6.7690    5.9840   -1.0990 ca        1 353      0.162900
     16 C16        -7.1510   10.4860   -1.8840 ca        1 353     -0.196900
     17 C17        -7.4670   11.6540   -1.1110 ca        1 353      0.676200
     18 C18        -3.7960   -0.8010    2.4170 c3        1 353     -0.075000
     19 C19        -2.3800   -0.8720    2.0040 c2        1 353      0.071300
     20 C20        -3.9490    1.2640    0.9870 ce        1 353     -0.343400
     21 C21        -4.5310    0.3560    1.8320 c2        1 353      0.223900
     22 C22        -2.5180    1.1940    0.6420 c         1 353      0.745700
     23 C23        -4.7870    2.3170    0.3370 c         1 353      0.708300
     24 C24        -7.9230   -0.0040    3.0760 c3        1 353     -0.104100
     25 C25        -6.5000   -0.4810    2.9090 c3        1 353      0.124400
     26 N26        -7.4000   11.6470    0.2640 nb        1 353     -0.742000
     27 N27        -1.8130    0.0860    1.1640 n         1 353     -0.289200
     28 N28        -7.7870   12.8460   -1.7530 nv        1 353     -0.935500
     29 N29        -4.2760    3.6120    0.3630 ns        1 353     -0.453100
     30 O31        -5.8920    2.0290   -0.1530 o         1 353     -0.566100
     31 O32        -6.4560    8.2150   -1.9740 os        1 353     -0.219200
     32 O33        -5.8370    0.5590    2.1590 os        1 353     -0.288900
     33 F34         3.3440   -1.8360   -0.6270 f         1 353     -0.162500
     34 F35        -8.0800    6.0280   -1.4220 f         1 353     -0.119900
     35 Cl36       -7.2760   10.5230   -3.5750 cl        1 353     -0.066400
     36 H1          0.1580    1.2920   -0.3510 ha        1 353      0.173000
     37 H2          0.7270   -1.9910    1.8850 ha        1 353      0.159000
     38 H3         -2.9750    5.8610   -0.1880 ha        1 353      0.144000
     39 H4         -3.9490    7.9330   -1.1350 ha        1 353      0.156000
     40 H5          2.5060    0.6490   -0.3800 ha        1 353      0.159000
     41 H6          1.3890   -2.2860   -0.1790 h4        1 353      0.160000
     42 H8         -6.8920    3.9340   -0.4270 ha        1 353      0.190000
     43 H9         -6.9550   10.5740    1.9700 h4        1 353      0.024100
     44 H18        -3.8300   -0.7550    3.5460 hc        1 353      0.129700
     45 H19        -4.2930   -1.7710    2.1160 hc        1 353      0.129700
     46 H24        -6.4540   -1.4390    2.3290 h1        1 353      0.048700
     47 H24A       -8.5040   -0.7870    3.6190 hc        1 353      0.061700
     48 H24B       -7.9530    0.9480    3.6580 hc        1 353      0.061700
     49 H25        -8.3920    0.1800    2.0790 hc        1 353      0.061700
     50 H25A       -5.9880   -0.6050    3.8980 h1        1 353      0.048700
     51 HN28       -8.1550   12.7600   -2.6720 hn        1 353      0.422800
     52 HN2A       -8.1740   13.5720   -1.1960 hn        1 353      0.422800
     53 HN29       -3.3060    3.7030    0.5870 hn        1 353      0.333500
     54 O30        -1.9310    2.0410   -0.0520 o         1 353     -0.609500
     55 H7         -6.3360    8.4470    0.7560 ha        1 353      0.159000
@<TRIPOS>BOND
     1    1    5 1   
     2    1   10 2   
     3    1   36 1   
     4    2    6 2   
     5    2   10 1   
     6    2   37 1   
     7    3    4 ar  
     8    3   11 ar  
     9    3   38 1   
    10    4   12 ar  
    11    4   39 1   
    12    5   14 2   
    13    5   40 1   
    14    6   19 2   
    15    7    9 ar  
    16    7   13 ar  
    17    7   55 1   
    18    8   11 ar  
    19    8   15 ar  
    20    8   42 1   
    21    9   26 ar  
    22    9   43 1   
    23   10   27 1   
    24   11   29 1   
    25   12   15 ar  
    26   12   31 1   
    27   13   16 ar  
    28   13   31 1   
    29   14   33 1   
    30   14   41 1   
    31   15   34 1   
    32   16   17 ar  
    33   16   35 1   
    34   17   26 ar  
    35   17   28 1   
    36   18   19 1   
    37   18   21 1   
    38   18   44 1   
    39   18   45 1   
    40   19   27 1   
    41   20   21 2   
    42   20   22 1   
    43   20   23 1   
    44   21   32 1   
    45   22   27 1   
    46   22   54 2   
    47   23   29 1   
    48   23   30 2   
    49   24   25 1   
    50   24   47 1   
    51   24   48 1   
    52   24   49 1   
    53   25   32 1   
    54   25   46 1   
    55   25   50 1   
    56   28   51 1   
    57   28   52 1   
    58   29   53 1   
@<TRIPOS>SUBSTRUCTURE
     1 353         1 TEMP              0 ****  ****    0 ROOT
