@<TRIPOS>MOLECULE
353
   55    58     1     0     0
SMALL
bcc


@<TRIPOS>ATOM
      1 C1          0.3920   -0.9280    1.2640 cx        1 353      0.044000
      2 C2          0.3610    0.2010    2.2380 cu        1 353     -0.581000
      3 C3         -4.7120    5.5150   -1.2520 ca        1 353     -0.191000
      4 C4         -5.3030    6.7280   -1.5690 ca        1 353     -0.083000
      5 C5          1.5580   -1.1460    0.4080 c2        1 353     -0.233000
      6 C6          0.7560    0.7360    3.3420 c1        1 353      0.264000
      7 C7         -5.7560    9.5370    0.0960 c2        1 353     -0.290000
      8 C8         -6.5570    4.9920    0.2530 ca        1 353     -0.194000
      9 C9         -5.4100   10.8190    0.5460 c2        1 353      0.002000
     10 C10        -0.5020    0.2630    1.0120 cx        1 353      0.098000
     11 C11        -5.3330    4.6240   -0.3380 ca        1 353      0.111000
     12 C12        -6.5190    7.0930   -0.9820 ca        1 353     -0.038000
     13 C13        -6.7430    9.4410   -0.8940 c2        1 353      0.153000
     14 C14         2.7550   -0.5690    0.6220 c2        1 353      0.030000
     15 C15        -7.1500    6.2260   -0.0640 ca        1 353      0.127000
     16 C16        -7.3390   10.6070   -1.4080 c2        1 353     -0.210000
     17 C17        -6.9040   11.8730   -0.8910 c2        1 353      0.153000
     18 C18        -3.9620   -1.1260    1.5960 c3        1 353     -0.236000
     19 C19        -2.4910   -0.9880    1.4610 c1        1 353     -0.050000
     20 C20        -4.1420    1.3050    1.0680 c2        1 353     -0.313000
     21 C21        -4.7510    0.1200    1.3940 c2        1 353      0.178000
     22 C22        -2.6940    1.3710    0.8400 c2        1 353      0.333000
     23 C23        -4.9460    2.5620    1.0050 c2        1 353      0.382000
     24 C24        -8.2030   -0.8160    2.0020 c3        1 353     -0.222000
     25 C25        -6.7210   -1.1030    1.9690 c3        1 353     -0.025000
     26 N26        -5.9490   11.9580    0.0980 n2        1 353     -0.216000
     27 N27        -1.9370    0.1690    1.1210 n         1 353     -0.172000
     28 N28        -7.4000   13.0540   -1.4370 nh        1 353     -0.332000
     29 N29        -4.7200    3.3860   -0.0950 n         1 353     -0.309000
     30 O31        -5.7930    2.8150    1.8790 o         1 353     -0.329000
     31 O32        -7.1950    8.2350   -1.4070 os        1 353     -0.130000
     32 O33        -6.1060    0.1170    1.5030 os        1 353     -0.171000
     33 F34         3.8240   -0.8020   -0.1660 f         1 353     -0.110000
     34 F35        -8.3260    6.5660    0.5060 f         1 353     -0.085000
     35 CL36       -8.5400   10.5420   -2.6050 cl        1 353      0.010000
     36 H1         -0.0900   -1.8770    1.6020 hc        1 353      0.172000
     37 H2         -0.2070    1.0200    0.2440 h1        1 353      0.175000
     38 H3         -3.7520    5.2510   -1.7230 ha        1 353      0.144000
     39 H4         -4.8230    7.4140   -2.2840 ha        1 353      0.156000
     40 H5          1.3960   -1.8430   -0.4310 ha        1 353      0.156000
     41 H6          2.9610    0.1320    1.4530 h4        1 353      0.155000
     42 H8         -7.0690    4.3310    0.9730 ha        1 353      0.189000
     43 H9         -4.6440   10.9450    1.3350 h4        1 353      0.163000
     44 H18        -4.1500   -1.5360    2.6310 hc        1 353      0.163000
     45 H19        -4.2870   -1.9180    0.8620 hc        1 353      0.163000
     46 H24        -6.4770   -1.9340    1.2570 h1        1 353      0.085000
     47 H24A       -8.7360   -1.7130    2.3970 hc        1 353      0.100333
     48 H24B       -8.4150    0.0610    2.6610 hc        1 353      0.100333
     49 H25        -8.5810   -0.5830    0.9780 hc        1 353      0.100333
     50 H25A       -6.3270   -1.3450    2.9900 h1        1 353      0.085000
     51 HN28       -8.2930   12.9910   -1.8680 hn        1 353      0.217500
     52 HN2A       -7.2200   13.8940   -0.9370 hn        1 353      0.217500
     53 HN29       -3.8890    3.2110   -0.6230 hn        1 353      0.248000
     54 O30        -2.1040    2.3750    0.4110 o         1 353     -0.317000
     55 H7         -5.2770    8.6420    0.5100 ha        1 353      0.160000
@<TRIPOS>BOND
     1    1    2 1   
     2    1    5 1   
     3    1   10 1   
     4    1   36 1   
     5    2    6 1   
     6    2   10 1   
     7    3    4 1   
     8    3   11 1   
     9    3   38 1   
    10    4   12 1   
    11    4   39 1   
    12    5   14 1   
    13    5   40 1   
    14    7    9 1   
    15    7   13 1   
    16    7   55 1   
    17    8   11 1   
    18    8   15 1   
    19    8   42 1   
    20    9   26 1   
    21    9   43 1   
    22   10   27 1   
    23   10   37 1   
    24   11   29 1   
    25   12   15 1   
    26   12   31 1   
    27   13   16 1   
    28   13   31 1   
    29   14   33 1   
    30   14   41 1   
    31   15   34 1   
    32   16   17 1   
    33   16   35 1   
    34   17   26 1   
    35   17   28 1   
    36   18   19 1   
    37   18   21 1   
    38   18   44 1   
    39   18   45 1   
    40   19   27 1   
    41   20   21 1   
    42   20   22 1   
    43   20   23 1   
    44   21   32 1   
    45   22   27 1   
    46   22   54 1   
    47   23   29 1   
    48   23   30 1   
    49   24   25 1   
    50   24   47 1   
    51   24   48 1   
    52   24   49 1   
    53   25   32 1   
    54   25   46 1   
    55   25   50 1   
    56   28   51 1   
    57   28   52 1   
    58   29   53 1   
@<TRIPOS>SUBSTRUCTURE
     1 353         1 TEMP              0 ****  ****    0 ROOT
