@<TRIPOS>MOLECULE
353
   55    58     1     0     0
SMALL
bcc


@<TRIPOS>ATOM
      1 C1          0.4060    0.3200    0.0710 ce        1 353     -0.005000
      2 C2         -0.2610   -1.5010    1.7580 cf        1 353     -0.170100
      3 C3         -4.0490    5.9030   -0.4760 ca        1 353     -0.191000
      4 C4         -4.5870    7.0640   -1.0080 ca        1 353     -0.082000
      5 C5          1.7250   -0.1540   -0.2520 ce        1 353     -0.225000
      6 C6         -1.4280   -1.8240    2.4290 c1        1 353     -0.193800
      7 C7         -6.6250    9.3740    0.1650 ca        1 353     -0.357300
      8 C8         -6.2360    4.8310   -0.5630 ca        1 353     -0.195000
      9 C9         -6.9520   10.5680    0.8230 ca        1 353      0.467200
     10 C10        -0.4670   -0.3130    0.8910 cf        1 353     -0.059400
     11 C11        -4.8670    4.7660   -0.2420 ca        1 353      0.102600
     12 C12        -5.9480    7.1280   -1.3230 ca        1 353      0.008100
     13 C13        -6.7320    9.3530   -1.2320 ca        1 353      0.199100
     14 C14         2.0560   -1.4620   -0.3610 c2        1 353      0.115500
     15 C15        -6.7790    6.0100   -1.1010 ca        1 353      0.162900
     16 C16        -7.1440   10.5070   -1.9230 ca        1 353     -0.196900
     17 C17        -7.4410   11.6840   -1.1570 ca        1 353      0.676200
     18 C18        -3.7980   -0.7610    2.4340 c3        1 353     -0.075000
     19 C19        -2.3880   -0.8430    2.0030 c2        1 353      0.071300
     20 C20        -3.9570    1.2920    0.9870 ce        1 353     -0.343400
     21 C21        -4.5340    0.3950    1.8480 c2        1 353      0.223900
     22 C22        -2.5310    1.2120    0.6260 c         1 353      0.745700
     23 C23        -4.7980    2.3440    0.3390 c         1 353      0.708300
     24 C24        -7.9120    0.0640    3.1370 c3        1 353     -0.104100
     25 C25        -6.4940   -0.4220    2.9570 c3        1 353      0.124400
     26 N26        -7.3540   11.6910    0.2170 nb        1 353     -0.742000
     27 N27        -1.8270    0.1040    1.1480 n         1 353     -0.289200
     28 N28        -7.7610   12.8720   -1.8060 nh        1 353     -0.935500
     29 N29        -4.2800    3.6360    0.3480 n         1 353     -0.453100
     30 O31        -5.9110    2.0580   -0.1340 o         1 353     -0.566100
     31 O32        -6.4650    8.2310   -2.0010 os        1 353     -0.219200
     32 O33        -5.8340    0.6080    2.1900 os        1 353     -0.288900
     33 F34         3.2960   -1.8620   -0.6920 f         1 353     -0.162500
     34 F35        -8.0940    6.0590   -1.4060 f         1 353     -0.119900
     35 CL36       -7.2910   10.5290   -3.6130 cl        1 353     -0.066400
     36 H1          0.1320    1.2860   -0.4030 ha        1 353      0.173000
     37 H2          0.7120   -1.9800    1.8550 ha        1 353      0.159000
     38 H3         -2.9730    5.8720   -0.2420 ha        1 353      0.144000
     39 H4         -3.9480    7.9420   -1.1940 ha        1 353      0.156000
     40 H5          2.4760    0.6290   -0.4550 ha        1 353      0.159000
     41 H6          1.3450   -2.2970   -0.2150 h4        1 353      0.160000
     42 H8         -6.9050    3.9670   -0.4090 ha        1 353      0.190000
     43 H9         -6.8930   10.6300    1.9270 h4        1 353      0.024100
     44 H18        -3.8170   -0.7060    3.5620 hc        1 353      0.129700
     45 H19        -4.3040   -1.7310    2.1470 hc        1 353      0.129700
     46 H24        -6.4600   -1.3850    2.3840 h1        1 353      0.048700
     47 H24A       -7.9290    1.0210    3.7120 hc        1 353      0.061700
     48 H24B       -8.3920    0.2430    2.1440 hc        1 353      0.061700
     49 H25        -8.4910   -0.7110    3.6940 hc        1 353      0.061700
     50 H25A       -5.9700   -0.5400    3.9410 h1        1 353      0.048700
     51 HN28       -8.1430   12.7810   -2.7190 hn        1 353      0.422800
     52 HN2A       -8.1350   13.6070   -1.2510 hn        1 353      0.422800
     53 HN29       -3.3060    3.7240    0.5570 hn        1 353      0.333500
     54 O30        -1.9480    2.0490   -0.0830 o         1 353     -0.609500
     55 H7         -6.3050    8.4880    0.7240 ha        1 353      0.159000
@<TRIPOS>BOND
     1    1    5 1   
     2    1   10 2   
     3    1   36 1   
     4    2    6 2   
     5    2   10 1   
     6    2   37 1   
     7    3    4 ar  
     8    3   11 ar  
     9    3   38 1   
    10    4   12 ar  
    11    4   39 1   
    12    5   14 2   
    13    5   40 1   
    14    6   19 2   
    15    7    9 ar  
    16    7   13 ar  
    17    7   55 1   
    18    8   11 ar  
    19    8   15 ar  
    20    8   42 1   
    21    9   26 ar  
    22    9   43 1   
    23   10   27 1   
    24   11   29 1   
    25   12   15 ar  
    26   12   31 1   
    27   13   16 ar  
    28   13   31 1   
    29   14   33 1   
    30   14   41 1   
    31   15   34 1   
    32   16   17 ar  
    33   16   35 1   
    34   17   26 ar  
    35   17   28 1   
    36   18   19 1   
    37   18   21 1   
    38   18   44 1   
    39   18   45 1   
    40   19   27 1   
    41   20   21 2   
    42   20   22 1   
    43   20   23 1   
    44   21   32 1   
    45   22   27 1   
    46   22   54 2   
    47   23   29 1   
    48   23   30 2   
    49   24   25 1   
    50   24   47 1   
    51   24   48 1   
    52   24   49 1   
    53   25   32 1   
    54   25   46 1   
    55   25   50 1   
    56   28   51 1   
    57   28   52 1   
    58   29   53 1   
@<TRIPOS>SUBSTRUCTURE
     1 353         1 TEMP              0 ****  ****    0 ROOT
