@<TRIPOS>MOLECULE
354
   55    51     1     0     0
SMALL
bcc


@<TRIPOS>ATOM
      1 N2         -8.7500    2.3730   -5.0300 n3        1 354     -0.316000
      2 C2         -7.5840    2.1300   -4.2600 c2        1 354      0.167000
      3 N1         -6.9660    0.9130   -4.2760 n2        1 354     -0.252000
      4 C8A        -5.7240    0.7700   -3.7310 c1        1 354      0.088000
      5 C4A        -5.1020    1.8390   -3.1710 c1        1 354     -0.186000
      6 C5         -3.8030    1.6990   -2.6300 c1        1 354      0.014000
      7 C6         -3.1640    0.4690   -2.6720 c1        1 354     -0.609000
      8 C7         -3.7980   -0.6220   -3.2430 c1        1 354     -0.026000
      9 C8         -5.0720   -0.4840   -3.7730 c1        1 354     -0.157000
     10 S9         -2.0030    0.1770   -1.3540 s6        1 354      1.780000
     11 O91        -2.7130   -0.4770   -0.1940 oh        1 354     -0.660000
     12 O9         -1.4100    1.4910   -0.9060 oh        1 354     -0.660000
     13 N10        -0.7980   -0.8160   -1.8920 n3        1 354     -0.716000
     14 C11         0.3860   -0.9920   -1.1090 c2        1 354      0.022000
     15 C16         1.3880   -0.0340   -1.1410 c2        1 354     -0.216000
     16 C15         2.5400   -0.2070   -0.3830 c1        1 354     -0.068000
     17 C14         2.6880   -1.3390    0.4050 c1        1 354     -0.053000
     18 C13         1.6860   -2.2980    0.4370 c1        1 354     -0.087000
     19 C12         0.5340   -2.1250   -0.3200 c1        1 354     -0.197000
     20 C17         3.9600   -1.5460    1.2010 c3        1 354      0.152000
     21 O17         4.4130   -2.8620    1.0260 oh        1 354     -0.415000
     22 N           3.6990   -1.3140    2.5820 n3        1 354     -0.319000
     23 CA          4.9210   -1.0310    3.2550 c3        1 354     -0.098000
     24 CB          4.6560   -0.0870    4.4050 c3        1 354     -0.130000
     25 CG          5.9690    0.3080    5.0450 c3        1 354     -0.210000
     26 CD          5.7430    0.6260    6.5060 c2        1 354      0.323000
     27 OE1         5.7700    1.8210    6.9010 o         1 354     -0.608000
     28 OE2         5.5880   -0.3080    7.3370 o         1 354     -0.608000
     29 C           5.5140   -2.3150    3.7840 c2        1 354      0.311000
     30 O           6.7230   -2.5870    3.5640 o         1 354     -0.595000
     31 OT          4.8150   -3.0870    4.4910 o         1 354     -0.595000
     32 C4         -5.7320    3.0750   -3.1550 c1        1 354      0.216000
     33 O4         -5.8390    4.2650   -2.4140 o         1 354     -0.231000
     34 N3         -6.9570    3.2120   -3.6940 n2        1 354     -0.315000
     35 HN21       -8.9960    1.7850   -5.6840 hn        1 354      0.208000
     36 HN22       -9.2560    3.1190   -4.8720 hn        1 354      0.208000
     37 H5         -3.3680    2.4610   -2.2040 ha        1 354      0.161000
     38 H7         -3.3480   -1.4880   -3.2730 ha        1 354      0.132000
     39 H8         -5.5120   -1.2490   -4.1870 ha        1 354      0.146000
     40 H91        -2.2900   -0.2790    0.5610 ho        1 354      0.244000
     41 HO9        -1.9570    1.8790   -0.3200 ho        1 354      0.244000
     42 H10        -0.9050   -1.2830   -2.6660 hn        1 354      0.208000
     43 H16         1.2840    0.7620   -1.6950 ha        1 354      0.124000
     44 H15         3.2630    0.4450   -0.4390 ha        1 354      0.167000
     45 H13         1.8050   -3.1120    0.9650 ha        1 354      0.155000
     46 H12        -0.1710   -2.7990   -0.2980 ha        1 354      0.107000
     47 H17         4.6450   -0.9210    0.8890 h2        1 354      0.107000
     48 H1          4.4940   -3.0350    0.1570 ho        1 354      0.265000
     49 HN          3.3140   -2.0590    2.9500 hn        1 354      0.165000
     50 HA          5.5480   -0.6150    2.6310 h1        1 354      0.079000
     51 HB1         4.2010    0.7140    4.0720 hc        1 354      0.089000
     52 HB2         4.0910   -0.5320    5.0680 hc        1 354      0.089000
     53 HG1         6.3290    1.0970    4.5910 hc        1 354      0.057500
     54 HG2         6.6060   -0.4320    4.9670 hc        1 354      0.057500
     55 HO4        -5.3560    4.9030   -2.8050 ho        1 354      0.239000
@<TRIPOS>BOND
     1    1    2 1   
     2    1   35 1   
     3    1   36 1   
     4    2    3 1   
     5    2   34 1   
     6    3    4 1   
     7    4    9 1   
     8    5    6 1   
     9    5   32 1   
    10    6   37 1   
    11    7    8 1   
    12    7   10 1   
    13    8   38 1   
    14    9   39 1   
    15   10   11 1   
    16   10   12 1   
    17   10   13 1   
    18   11   40 1   
    19   12   41 1   
    20   13   14 1   
    21   13   42 1   
    22   14   15 1   
    23   14   19 1   
    24   15   16 1   
    25   15   43 1   
    26   16   44 1   
    27   17   18 1   
    28   17   20 1   
    29   18   45 1   
    30   19   46 1   
    31   20   21 1   
    32   20   22 1   
    33   20   47 1   
    34   21   48 1   
    35   22   23 1   
    36   22   49 1   
    37   23   24 1   
    38   23   29 1   
    39   23   50 1   
    40   24   25 1   
    41   24   51 1   
    42   24   52 1   
    43   25   26 1   
    44   25   53 1   
    45   25   54 1   
    46   26   27 1   
    47   26   28 1   
    48   29   30 1   
    49   29   31 1   
    50   32   34 1   
    51   33   55 1   
@<TRIPOS>SUBSTRUCTURE
     1 354         1 TEMP              0 ****  ****    0 ROOT
