@<TRIPOS>MOLECULE
354
   56    58     1     0     0
SMALL
bcc


@<TRIPOS>ATOM
      1 N2          0.0960   -0.5270    0.7750 nh        1 354     -0.478100
      2 C2          1.4640   -0.2970    0.5880 cc        1 354      0.679300
      3 N1          2.2670   -0.2430    1.6910 nc        1 354     -0.761000
      4 C8A         3.6190   -0.1270    1.4760 cd        1 354      0.567900
      5 C4A         4.1780   -0.0470    0.1600 cd        1 354     -0.378200
      6 C5          5.5700    0.0770   -0.0240 cc        1 354      0.050000
      7 C6          6.4230    0.1100    1.0600 cc        1 354     -0.652000
      8 C7          5.8770    0.0420    2.3650 cc        1 354     -0.023000
      9 C8          4.5260   -0.0730    2.5830 cd        1 354     -0.241600
     10 S9          8.1320    0.0970    0.8970 s6        1 354      1.349400
     11 O91         8.0690    1.3790   -0.2520 oh        1 354     -0.656200
     12 O9          8.8990   -0.7110   -0.4610 oh        1 354     -0.656200
     13 N10         8.9690    0.9610    2.0150 nh        1 354     -0.715500
     14 C11         9.7680    0.3300    2.9690 ca        1 354      0.063800
     15 C16        10.3800    1.0660    4.0100 ca        1 354     -0.212500
     16 C15        11.1710    0.4350    4.9630 ca        1 354     -0.052000
     17 C14        11.3780   -0.9480    4.9090 ca        1 354     -0.165300
     18 C13        10.7740   -1.6870    3.8860 ca        1 354     -0.052000
     19 C12         9.9860   -1.0680    2.9250 ca        1 354     -0.212500
     20 C17        12.2920   -1.6660    5.8750 c3        1 354      0.422600
     21 O17        11.9050   -3.0250    5.9080 oh        1 354     -0.622800
     22 N          12.2420   -1.1150    7.2830 n4        1 354     -0.817000
     23 CA         13.6050   -0.8020    7.8120 c3        1 354     -0.018500
     24 CB         13.5310   -0.0470    9.1390 c3        1 354     -0.071400
     25 CG         13.1610    1.4100    8.9870 c3        1 354     -0.206400
     26 CD         11.6580    1.6790    8.9150 c         1 354      0.902600
     27 OE1        11.0050    1.2810    7.8820 o         1 354     -0.835800
     28 OE2        11.1000    2.3160    9.8410 o         1 354     -0.835800
     29 C          14.4860   -2.0940    7.9750 c         1 354      0.916600
     30 O          15.6740   -1.9150    8.3230 o         1 354     -0.811800
     31 OT         13.9470   -3.2110    7.7210 o         1 354     -0.811800
     32 C4          3.2230   -0.0870   -0.9190 cd        1 354      0.728900
     33 O4          3.7390    0.0060   -2.1840 oh        1 354     -0.569600
     34 N3          1.9030   -0.1980   -0.7510 nc        1 354     -0.821000
     35 HN21       -0.2580   -0.3570    1.6880 hn        1 354      0.269700
     36 HN22       -0.5030   -0.2830    0.0210 hn        1 354      0.269700
     37 H5          5.9650    0.1530   -1.0520 ha        1 354      0.157000
     38 H7          6.5590    0.0850    3.2330 ha        1 354      0.147000
     39 H8          4.1220   -0.1250    3.6060 ha        1 354      0.156000
     40 H91         8.7050    1.2390   -0.9620 ho        1 354      0.441000
     41 HO9         9.5700   -1.3320   -0.2140 ho        1 354      0.441000
     42 H10         8.9600    1.9530    2.0950 hn        1 354      0.269700
     43 H16        10.2230    2.1530    4.0880 ha        1 354      0.128000
     44 H15        11.5960    1.0580    5.7760 ha        1 354      0.172000
     45 H13        10.9230   -2.7790    3.8460 ha        1 354      0.172000
     46 H12         9.5310   -1.6820    2.1340 ha        1 354      0.128000
     47 H17        13.3630   -1.5740    5.5130 hx        1 354      0.086700
     48 H1         12.6330   -3.5410    6.3080 ho        1 354      0.476000
     49 HN         11.6430   -0.2410    7.3480 hn        1 354      0.473800
     50 HA         14.1160   -0.1450    7.0510 hx        1 354      0.073700
     51 HB1        12.8210   -0.5530    9.8440 hc        1 354      0.066200
     52 HB2        14.5600   -0.1250    9.5880 hc        1 354      0.066200
     53 HG1        13.5660    1.9740    9.8690 hc        1 354      0.041200
     54 HG2        13.6350    1.8350    8.0660 hc        1 354      0.041200
     55 HO4         3.0210   -0.0340   -2.8390 ho        1 354      0.443000
     56 H2         11.8380   -1.8390    7.8850 hn        1 354      0.473800
@<TRIPOS>BOND
     1    1    2 2   
     2    1   35 1   
     3    1   36 1   
     4    2    3 1   
     5    2   34 1   
     6    3    4 2   
     7    4    5 1   
     8    4    9 1   
     9    5    6 2   
    10    5   32 1   
    11    6    7 1   
    12    6   37 1   
    13    7    8 1   
    14    7   10 2   
    15    8    9 2   
    16    8   38 1   
    17    9   39 1   
    18   10   11 1   
    19   10   12 1   
    20   10   13 2   
    21   11   40 1   
    22   12   41 1   
    23   13   14 1   
    24   13   42 1   
    25   14   15 ar  
    26   14   19 ar  
    27   15   16 ar  
    28   15   43 1   
    29   16   17 ar  
    30   16   44 1   
    31   17   18 ar  
    32   17   20 1   
    33   18   19 ar  
    34   18   45 1   
    35   19   46 1   
    36   20   21 1   
    37   20   22 1   
    38   20   47 1   
    39   21   48 1   
    40   22   23 1   
    41   22   49 1   
    42   22   56 1   
    43   23   24 1   
    44   23   29 1   
    45   23   50 1   
    46   24   25 1   
    47   24   51 1   
    48   24   52 1   
    49   25   26 1   
    50   25   53 1   
    51   25   54 1   
    52   26   27 1   
    53   26   28 1   
    54   29   30 1   
    55   29   31 1   
    56   32   33 1   
    57   32   34 2   
    58   33   55 1   
@<TRIPOS>SUBSTRUCTURE
     1 354         1 TEMP              0 ****  ****    0 ROOT
