@<TRIPOS>MOLECULE
354
   56    58     1     0     0
SMALL
bcc


@<TRIPOS>ATOM
      1 N2         -0.1060    0.6710    0.2460 nv        1 354     -0.481100
      2 C2          1.2700    0.4280    0.2200 cc        1 354      0.685300
      3 N1          1.9590    0.4910    1.3980 nc        1 354     -0.763000
      4 C8A         3.3250    0.3580    1.3310 cd        1 354      0.571900
      5 C4A         4.0110    0.1390    0.0940 cd        1 354     -0.380200
      6 C5          5.4140    0.0120    0.0610 cc        1 354      0.051000
      7 C6          6.1530    0.0720    1.2240 cc        1 354     -0.633000
      8 C7          5.4820    0.2910    2.4530 cc        1 354     -0.025000
      9 C8          4.1190    0.4310    2.5210 cd        1 354     -0.239600
     10 S9          7.8410   -0.2470    1.2880 s6        1 354      1.380400
     11 O91         8.0640    0.7880   -0.0900 oh        1 354     -0.672200
     12 O9          8.5690   -1.4040    0.2290 oh        1 354     -0.672200
     13 N10         8.6530    0.7380    2.3210 nu        1 354     -0.727500
     14 C11         9.5990    0.2370    3.2210 ca        1 354      0.051800
     15 C16        10.0720    1.0320    4.2890 ca        1 354     -0.205000
     16 C15        10.9910    0.5260    5.2030 ca        1 354     -0.058500
     17 C14        11.4650   -0.7840    5.0780 ca        1 354     -0.163300
     18 C13        11.0060   -1.5770    4.0200 ca        1 354     -0.058500
     19 C12        10.0940   -1.0830    3.0970 ca        1 354     -0.205000
     20 C17        12.5160   -1.3510    6.0030 c3        1 354      0.422600
     21 O17        12.4090   -2.7600    5.9700 oh        1 354     -0.620800
     22 N          12.3730   -0.8900    7.4380 ny        1 354     -0.817000
     23 CA         13.6550   -0.3480    7.9850 c3        1 354     -0.018500
     24 CB         13.4470    0.3210    9.3430 c3        1 354     -0.070400
     25 CG         12.8030    1.6850    9.2550 c3        1 354     -0.206400
     26 CD         11.2750    1.6650    9.2070 c         1 354      0.902600
     27 OE1        10.6930    1.1810    8.1700 o         1 354     -0.835800
     28 OE2        10.6230    2.1560   10.1600 o         1 354     -0.835800
     29 C          14.7650   -1.4550    8.0950 c         1 354      0.916600
     30 O          15.9020   -1.0670    8.4430 o         1 354     -0.811800
     31 OT         14.4430   -2.6440    7.8040 o         1 354     -0.811800
     32 C4          3.1670    0.0630   -1.0740 cd        1 354      0.730900
     33 O4          3.8060   -0.1680   -2.2640 oh        1 354     -0.570600
     34 N3          1.8380    0.1890   -1.0500 nc        1 354     -0.821000
     35 HN21       -0.5520    0.6110    1.1310 hn        1 354      0.273200
     36 HN22       -0.6320    0.3640   -0.5390 hn        1 354      0.273200
     37 H5          5.9110   -0.1280   -0.9160 ha        1 354      0.157000
     38 H7          6.0760    0.3510    3.3820 ha        1 354      0.150000
     39 H8          3.6170    0.6020    3.4870 ha        1 354      0.158000
     40 H91         8.9870    0.8770   -0.3210 ho        1 354      0.426000
     41 HO9         8.4140   -1.3770   -0.7080 ho        1 354      0.426000
     42 H10         8.5320    1.7220    2.3880 hn        1 354      0.263700
     43 H16         9.7050    2.0610    4.4240 ha        1 354      0.143500
     44 H15        11.2980    1.1820    6.0420 ha        1 354      0.170000
     45 H13        11.3720   -2.6120    3.9200 ha        1 354      0.170000
     46 H12         9.7660   -1.7300    2.2650 ha        1 354      0.143500
     47 H17        13.5420   -1.0290    5.6460 hx        1 354      0.085700
     48 H1         13.2280   -3.1390    6.3460 ho        1 354      0.475000
     49 HN         11.6170   -0.1540    7.5470 hn        1 354      0.473800
     50 HA         14.0280    0.4270    7.2550 hx        1 354      0.073700
     51 HB1        12.8510   -0.3410   10.0230 hc        1 354      0.065700
     52 HB2        14.4750    0.4220    9.7900 hc        1 354      0.065700
     53 HG1        13.1080    2.2820   10.1550 hc        1 354      0.040700
     54 HG2        13.1720    2.2290    8.3470 hc        1 354      0.040700
     55 HO4         3.1580   -0.1920   -2.9880 ho        1 354      0.445000
     56 H2         12.1210   -1.7080    8.0020 hn        1 354      0.473800
@<TRIPOS>BOND
     1    1    2 2   
     2    1   35 1   
     3    1   36 1   
     4    2    3 1   
     5    2   34 1   
     6    3    4 2   
     7    4    5 1   
     8    4    9 1   
     9    5    6 2   
    10    5   32 1   
    11    6    7 1   
    12    6   37 1   
    13    7    8 1   
    14    7   10 2   
    15    8    9 2   
    16    8   38 1   
    17    9   39 1   
    18   10   11 1   
    19   10   12 1   
    20   10   13 2   
    21   11   40 1   
    22   12   41 1   
    23   13   14 1   
    24   13   42 1   
    25   14   15 ar  
    26   14   19 ar  
    27   15   16 ar  
    28   15   43 1   
    29   16   17 ar  
    30   16   44 1   
    31   17   18 ar  
    32   17   20 1   
    33   18   19 ar  
    34   18   45 1   
    35   19   46 1   
    36   20   21 1   
    37   20   22 1   
    38   20   47 1   
    39   21   48 1   
    40   22   23 1   
    41   22   49 1   
    42   22   56 1   
    43   23   24 1   
    44   23   29 1   
    45   23   50 1   
    46   24   25 1   
    47   24   51 1   
    48   24   52 1   
    49   25   26 1   
    50   25   53 1   
    51   25   54 1   
    52   26   27 1   
    53   26   28 1   
    54   29   30 1   
    55   29   31 1   
    56   32   33 1   
    57   32   34 2   
    58   33   55 1   
@<TRIPOS>SUBSTRUCTURE
     1 354         1 TEMP              0 ****  ****    0 ROOT
