@<TRIPOS>MOLECULE
354
   55    57     1     0     0
SMALL
bcc


@<TRIPOS>ATOM
      1 N2          6.3570   -3.3970    2.7940 nh        1 354     -0.463100
      2 C2          5.8720   -2.2890    2.0640 cc        1 354      0.647300
      3 N1          4.5580   -2.2750    1.7150 nc        1 354     -0.737000
      4 C8A         4.1300   -1.2410    0.9100 cd        1 354      0.547900
      5 C4A         5.0200   -0.2140    0.4590 cd        1 354     -0.362200
      6 C5          4.5510    0.8250   -0.3690 cc        1 354     -0.006000
      7 C6          3.2270    0.8850   -0.7460 cc        1 354     -0.674000
      8 C7          2.3390   -0.1200   -0.2930 cc        1 354     -0.025000
      9 C8          2.7610   -1.1560    0.5060 cd        1 354     -0.224600
     10 S9          2.6450    2.2930   -1.5880 s6        1 354      1.390400
     11 O91         3.5180    1.8160   -3.0220 oh        1 354     -0.660700
     12 O9          3.6250    3.6880   -1.8290 oh        1 354     -0.660700
     13 N10         1.2120    2.2300   -2.3270 nh        1 354     -0.711500
     14 C11         0.0320    1.8900   -1.6290 ca        1 354     -0.034200
     15 C16        -0.9530    1.0800   -2.2360 ca        1 354     -0.186500
     16 C15        -2.1160    0.7480   -1.5500 ca        1 354     -0.094500
     17 C14        -2.3240    1.2100   -0.2440 ca        1 354     -0.076300
     18 C13        -1.3550    2.0120    0.3610 ca        1 354     -0.094500
     19 C12        -0.1910    2.3630   -0.3190 ca        1 354     -0.186500
     20 C17        -3.6200    0.8600    0.4720 c3        1 354      0.443600
     21 O17        -3.6680    1.5660    1.7100 oh        1 354     -0.674800
     22 N          -3.7700   -0.5840    0.6280 n3        1 354     -0.839200
     23 CA         -5.0660   -0.9770    1.1780 c3        1 354      0.063500
     24 CB         -5.7620   -2.0530    0.3350 c3        1 354     -0.063400
     25 CG         -6.2940   -1.5200   -0.9800 c3        1 354     -0.190400
     26 CD         -5.4410   -1.8670   -2.2030 c         1 354      0.909600
     27 OE1        -5.9940   -2.4700   -3.1710 o         1 354     -0.875300
     28 OE2        -4.2220   -1.5090   -2.2430 o         1 354     -0.875300
     29 C          -4.9360   -1.4210    2.6700 c         1 354      0.921600
     30 O          -5.2720   -2.5890    3.0090 o         1 354     -0.859800
     31 OT         -4.5550   -0.5450    3.5080 o         1 354     -0.859800
     32 C4          6.3800   -0.3330    0.9190 cd        1 354      0.713900
     33 O4          7.2460    0.6520    0.5110 oh        1 354     -0.575600
     34 N3          6.8280   -1.3140    1.7060 nc        1 354     -0.822000
     35 HN21        7.1600   -3.2080    3.3500 hn        1 354      0.253200
     36 HN22        5.6510   -3.9220    3.2630 hn        1 354      0.253200
     37 H5          5.2670    1.5950   -0.7070 ha        1 354      0.144000
     38 H7          1.2710   -0.0620   -0.5810 ha        1 354      0.172000
     39 H8          2.0500   -1.9260    0.8480 ha        1 354      0.170000
     40 H91         3.6310    0.8740   -3.1120 ho        1 354      0.428500
     41 HO9         4.1590    3.7690   -2.6150 ho        1 354      0.428500
     42 H10         1.0750    2.2850   -3.3100 hn        1 354      0.264700
     43 H16        -0.8100    0.7020   -3.2590 ha        1 354      0.116500
     44 H15        -2.8770    0.0950   -2.0330 ha        1 354      0.188500
     45 H13        -1.5240    2.3660    1.3910 ha        1 354      0.188500
     46 H12         0.5490    3.0090    0.1750 ha        1 354      0.116500
     47 H17        -4.4580    1.3220   -0.1520 h2        1 354      0.015700
     48 H1         -3.7840    0.9290    2.4440 ho        1 354      0.476000
     49 HN         -3.6150   -1.0370   -0.2620 hn        1 354      0.413800
     50 HA         -5.7580   -0.0780    1.2160 h1        1 354      0.012700
     51 HB1        -5.0580   -2.9050    0.1510 hc        1 354      0.046200
     52 HB2        -6.6060   -2.4570    0.9530 hc        1 354      0.046200
     53 HG1        -7.3240   -1.9290   -1.1520 hc        1 354      0.015200
     54 HG2        -6.3820   -0.4030   -0.9400 hc        1 354      0.015200
     55 HO4         8.1290    0.4830    0.8800 ho        1 354      0.434000
@<TRIPOS>BOND
     1    1    2 2   
     2    1   35 1   
     3    1   36 1   
     4    2    3 1   
     5    2   34 1   
     6    3    4 2   
     7    4    5 1   
     8    4    9 1   
     9    5    6 2   
    10    5   32 1   
    11    6    7 1   
    12    6   37 1   
    13    7    8 1   
    14    7   10 2   
    15    8    9 2   
    16    8   38 1   
    17    9   39 1   
    18   10   11 1   
    19   10   12 1   
    20   10   13 2   
    21   11   40 1   
    22   12   41 1   
    23   13   14 1   
    24   13   42 1   
    25   14   15 ar  
    26   14   19 ar  
    27   15   16 ar  
    28   15   43 1   
    29   16   17 ar  
    30   16   44 1   
    31   17   18 ar  
    32   17   20 1   
    33   18   19 ar  
    34   18   45 1   
    35   19   46 1   
    36   20   21 1   
    37   20   22 1   
    38   20   47 1   
    39   21   48 1   
    40   22   23 1   
    41   22   49 1   
    42   23   24 1   
    43   23   29 1   
    44   23   50 1   
    45   24   25 1   
    46   24   51 1   
    47   24   52 1   
    48   25   26 1   
    49   25   53 1   
    50   25   54 1   
    51   26   27 1   
    52   26   28 1   
    53   29   30 1   
    54   29   31 1   
    55   32   33 1   
    56   32   34 2   
    57   33   55 1   
@<TRIPOS>SUBSTRUCTURE
     1 354         1 TEMP              0 ****  ****    0 ROOT
