@<TRIPOS>MOLECULE
354
   55    57     1     0     0
SMALL
bcc


@<TRIPOS>ATOM
      1 N2          0.1400    0.0180    0.9340 nh        1 354     -0.468100
      2 C2          1.5260   -0.0440    0.6850 cc        1 354      0.657300
      3 N1          2.3760    0.0880    1.7400 nc        1 354     -0.751000
      4 C8A         3.7230    0.1390    1.4590 cd        1 354      0.553900
      5 C4A         4.2250    0.0390    0.1220 cd        1 354     -0.367200
      6 C5          5.6120    0.0980   -0.1310 cc        1 354      0.031000
      7 C6          6.5100    0.2290    0.9050 cc        1 354     -0.634000
      8 C7          6.0220    0.3310    2.2290 cc        1 354     -0.022000
      9 C8          4.6770    0.2900    2.5140 cd        1 354     -0.240600
     10 S9          8.2240    0.1140    0.6750 s6        1 354      1.363400
     11 O91         8.1300    1.2820   -0.5930 oh        1 354     -0.666700
     12 O9          9.0150   -0.7940   -0.6110 oh        1 354     -0.666700
     13 N10         9.1300    1.0340    1.6570 nh        1 354     -0.723500
     14 C11         9.8710    0.4410    2.6960 ca        1 354      0.002800
     15 C16        10.4710    1.2330    3.6980 ca        1 354     -0.209000
     16 C15        11.2050    0.6400    4.7210 ca        1 354     -0.073000
     17 C14        11.3610   -0.7500    4.7790 ca        1 354     -0.065300
     18 C13        10.7640   -1.5380    3.7910 ca        1 354     -0.073000
     19 C12        10.0320   -0.9610    2.7580 ca        1 354     -0.209000
     20 C17        12.2240   -1.3810    5.8610 c3        1 354      0.429600
     21 O17        11.8850   -2.7740    5.8790 oh        1 354     -0.686800
     22 N          12.0480   -0.7210    7.1490 n3        1 354     -0.839200
     23 CA         13.2880   -0.4620    7.8790 c3        1 354      0.049500
     24 CB         13.0400   -0.1600    9.3650 c3        1 354     -0.049400
     25 CG         12.2550    1.1120    9.5820 c3        1 354     -0.181400
     26 CD         11.9630    1.3940   11.0610 c         1 354      0.903600
     27 OE1        12.2880    2.5290   11.5300 o         1 354     -0.872800
     28 OE2        11.3680    0.5190   11.7590 o         1 354     -0.872800
     29 C          14.3770   -1.5690    7.7670 c         1 354      0.889600
     30 O          15.5860   -1.2090    7.7800 o         1 354     -0.860300
     31 OT         14.0280   -2.7850    7.6340 o         1 354     -0.860300
     32 C4          3.2230   -0.1260   -0.9000 cd        1 354      0.720900
     33 O4          3.6850   -0.2430   -2.1860 oh        1 354     -0.570600
     34 N3          1.9090   -0.1810   -0.6660 nc        1 354     -0.823000
     35 HN21       -0.4330   -0.4190    0.2480 hn        1 354      0.256700
     36 HN22       -0.1260   -0.1640    1.8760 hn        1 354      0.256700
     37 H5          5.9620    0.0430   -1.1760 ha        1 354      0.153000
     38 H7          6.7430    0.4460    3.0590 ha        1 354      0.154000
     39 H8          4.3190    0.3730    3.5520 ha        1 354      0.155000
     40 H91         8.7610    1.0850   -1.2920 ho        1 354      0.438000
     41 HO9         9.7770   -1.2780   -0.3230 ho        1 354      0.438000
     42 H10         9.2110    2.0230    1.6210 hn        1 354      0.270700
     43 H16        10.3610    2.3270    3.6790 ha        1 354      0.111000
     44 H15        11.6610    1.2730    5.5020 ha        1 354      0.163500
     45 H13        10.8740   -2.6340    3.8400 ha        1 354      0.163500
     46 H12         9.5820   -1.6120    1.9930 ha        1 354      0.111000
     47 H17        13.3030   -1.2800    5.5210 h2        1 354      0.063700
     48 H1         12.5110   -3.2070    6.4880 ho        1 354      0.466000
     49 HN         11.4100   -1.2460    7.7170 hn        1 354      0.369800
     50 HA         13.7270    0.4680    7.4070 h1        1 354      0.038700
     51 HB1        14.0460   -0.0700    9.8520 hc        1 354      0.050200
     52 HB2        12.5060   -1.0160    9.8550 hc        1 354      0.050200
     53 HG1        11.2670    1.0490    9.0570 hc        1 354      0.017700
     54 HG2        12.8150    1.9800    9.1500 hc        1 354      0.017700
     55 HO4         2.9350   -0.3440   -2.7970 ho        1 354      0.437000
@<TRIPOS>BOND
     1    1    2 2   
     2    1   35 1   
     3    1   36 1   
     4    2    3 1   
     5    2   34 1   
     6    3    4 2   
     7    4    5 1   
     8    4    9 1   
     9    5    6 2   
    10    5   32 1   
    11    6    7 1   
    12    6   37 1   
    13    7    8 1   
    14    7   10 2   
    15    8    9 2   
    16    8   38 1   
    17    9   39 1   
    18   10   11 1   
    19   10   12 1   
    20   10   13 2   
    21   11   40 1   
    22   12   41 1   
    23   13   14 1   
    24   13   42 1   
    25   14   15 ar  
    26   14   19 ar  
    27   15   16 ar  
    28   15   43 1   
    29   16   17 ar  
    30   16   44 1   
    31   17   18 ar  
    32   17   20 1   
    33   18   19 ar  
    34   18   45 1   
    35   19   46 1   
    36   20   21 1   
    37   20   22 1   
    38   20   47 1   
    39   21   48 1   
    40   22   23 1   
    41   22   49 1   
    42   23   24 1   
    43   23   29 1   
    44   23   50 1   
    45   24   25 1   
    46   24   51 1   
    47   24   52 1   
    48   25   26 1   
    49   25   53 1   
    50   25   54 1   
    51   26   27 1   
    52   26   28 1   
    53   29   30 1   
    54   29   31 1   
    55   32   33 1   
    56   32   34 2   
    57   33   55 1   
@<TRIPOS>SUBSTRUCTURE
     1 354         1 TEMP              0 ****  ****    0 ROOT
