@<TRIPOS>MOLECULE
355
   76    81     1     0     0
SMALL
bcc


@<TRIPOS>ATOM
      1 C1          0.3110   -0.4440    0.9340 c3        1 355     -0.064800
      2 C2          1.5810    0.2480    0.5570 cc        1 355      0.042400
      3 C3          2.2450    0.9690    1.5280 cd        1 355     -0.218000
      4 C4          3.4580    1.6450    1.2300 cd        1 355     -0.046000
      5 C5          3.9770    1.5820   -0.0250 cc        1 355     -0.173000
      6 C6          3.2990    0.8250   -1.0730 cc        1 355      0.147700
      7 N1          3.8680    0.7970   -2.2940 nd        1 355     -0.380600
      8 C7          3.2440    0.0880   -3.2870 cd        1 355      0.177400
      9 C8          3.9030   -0.0040   -4.6500 c3        1 355      0.134200
     10 N2          4.7450    1.1070   -5.0400 n         1 355     -0.334000
     11 C9          6.1420    0.9650   -4.8420 c         1 355      0.819500
     12 O1          6.6390   -0.1570   -4.6020 o         1 355     -0.638500
     13 N3          6.9910    2.0880   -4.9940 n         1 355     -0.493400
     14 C10         8.4020    1.9080   -4.7210 c3        1 355      0.103000
     15 C11         9.2310    1.4020   -5.9140 c3        1 355     -0.087700
     16 C12        10.6270    1.0550   -5.4150 c3        1 355     -0.078400
     17 C13        11.5280    0.6170   -6.5500 c3        1 355     -0.075900
     18 C14        11.5960    1.7060   -7.6180 c3        1 355     -0.128700
     19 C15        10.1990    2.0180   -8.1480 c3        1 355     -0.075900
     20 C16         9.2980    2.4520   -7.0100 c3        1 355     -0.078400
     21 C17        12.4860    1.2470   -8.7450 c         1 355      0.547100
     22 O2         12.8870    0.1260   -9.0080 o         1 355     -0.406100
     23 N4         12.9440    2.3290   -9.7070 n4        1 355     -0.691800
     24 C18        14.1940    3.0050   -9.2190 c3        1 355      0.180100
     25 C19        14.6600    4.0320  -10.1910 ca        1 355     -0.194300
     26 C20        14.2720    5.3680  -10.0390 ca        1 355     -0.099500
     27 C21        14.7420    6.3320  -10.9300 ca        1 355     -0.118500
     28 C22        15.5960    5.9640  -11.9720 ca        1 355     -0.076000
     29 C23        15.9840    4.6310  -12.1230 ca        1 355     -0.118500
     30 C24        15.5180    3.6640  -11.2340 ca        1 355     -0.099500
     31 C25         6.4970    3.3520   -5.3670 c         1 355      0.731100
     32 O3          7.2980    4.2800   -5.5890 o         1 355     -0.635500
     33 C26         5.0350    3.4920   -5.4720 ca        1 355     -0.209600
     34 C27         4.1860    2.3770   -5.2580 ca        1 355      0.122600
     35 C28         2.7860    2.5780   -5.3260 ca        1 355     -0.180000
     36 C29         2.2740    3.8340   -5.6190 ca        1 355     -0.058000
     37 C30         3.1200    4.9240   -5.8460 ca        1 355     -0.169000
     38 C31         4.4950    4.7510   -5.7680 ca        1 355     -0.038000
     39 C32         2.0580   -0.5820   -3.0920 cc        1 355     -0.344200
     40 C33         1.4120   -0.5740   -1.7910 c         1 355      0.590500
     41 O4          0.3400   -1.1550   -1.5550 o         1 355     -0.610500
     42 N5          2.0860    0.1660   -0.7480 n         1 355     -0.092200
     43 H1          0.3930   -1.5470    0.7570 hc        1 355      0.074033
     44 H2         -0.5450   -0.0620    0.3200 hc        1 355      0.074033
     45 H3          0.0880   -0.2670    2.0140 hc        1 355      0.074033
     46 H4          1.8350    1.0230    2.5460 ha        1 355      0.162000
     47 H5          3.9620    2.2130    2.0270 ha        1 355      0.152000
     48 H6          4.9140    2.0880   -0.3000 ha        1 355      0.170000
     49 H7          3.0970   -0.1130   -5.4330 h1        1 355      0.097200
     50 H8          4.5310   -0.9470   -4.6520 h1        1 355      0.097200
     51 H9          8.8170    2.9010   -4.3820 h1        1 355      0.081200
     52 H10         8.5040    1.1600   -3.8820 h1        1 355      0.081200
     53 H11         8.7510    0.4680   -6.3220 hc        1 355      0.077700
     54 H12        11.0740    1.9420   -4.8950 hc        1 355      0.068200
     55 H13        10.5590    0.2210   -4.6670 hc        1 355      0.068200
     56 H14        12.5580    0.4080   -6.1600 hc        1 355      0.059950
     57 H15        11.1380   -0.3310   -7.0070 hc        1 355      0.059950
     58 H16        12.0350    2.6380   -7.1580 hc        1 355      0.091700
     59 H17        10.2430    2.8370   -8.9120 hc        1 355      0.059950
     60 H18         9.7710    1.1050   -8.6390 hc        1 355      0.059950
     61 H19         8.2680    2.6420   -7.4160 hc        1 355      0.068200
     62 H20         9.6580    3.4250   -6.5790 hc        1 355      0.068200
     63 H21        13.1380    1.9150  -10.6280 hn        1 355      0.456800
     64 H22        14.9750    2.2020   -9.0760 hx        1 355      0.107700
     65 H23        13.9610    3.4720   -8.2180 hx        1 355      0.107700
     66 H24        13.6120    5.6660   -9.2100 ha        1 355      0.140000
     67 H25        14.4430    7.3850  -10.8070 ha        1 355      0.160500
     68 H26        15.9690    6.7290  -12.6730 ha        1 355      0.161000
     69 H27        16.6640    4.3440  -12.9400 ha        1 355      0.160500
     70 H28        15.8410    2.6170  -11.3460 ha        1 355      0.140000
     71 H29         2.0900    1.7470   -5.1330 ha        1 355      0.152000
     72 H30         1.1810    3.9720   -5.6690 ha        1 355      0.148000
     73 H31         2.6970    5.9120   -6.0780 ha        1 355      0.149000
     74 H32         5.1840    5.5980   -5.9290 ha        1 355      0.160000
     75 H33         1.5470   -1.1520   -3.8770 ha        1 355      0.172000
     76 H42        12.2020    3.0280   -9.8170 hn        1 355      0.456800
@<TRIPOS>BOND
     1    1    2 1   
     2    1   43 1   
     3    1   44 1   
     4    1   45 1   
     5    2    3 2   
     6    2   42 1   
     7    3    4 1   
     8    3   46 1   
     9    4    5 2   
    10    4   47 1   
    11    5    6 1   
    12    5   48 1   
    13    6    7 2   
    14    6   42 1   
    15    7    8 1   
    16    8    9 1   
    17    8   39 2   
    18    9   10 1   
    19    9   49 1   
    20    9   50 1   
    21   10   11 1   
    22   10   34 1   
    23   11   12 2   
    24   11   13 1   
    25   13   14 1   
    26   13   31 1   
    27   14   15 1   
    28   14   51 1   
    29   14   52 1   
    30   15   16 1   
    31   15   20 1   
    32   15   53 1   
    33   16   17 1   
    34   16   54 1   
    35   16   55 1   
    36   17   18 1   
    37   17   56 1   
    38   17   57 1   
    39   18   19 1   
    40   18   21 1   
    41   18   58 1   
    42   19   20 1   
    43   19   59 1   
    44   19   60 1   
    45   20   61 1   
    46   20   62 1   
    47   21   22 2   
    48   21   23 1   
    49   23   24 1   
    50   23   63 1   
    51   23   76 1   
    52   24   25 1   
    53   24   64 1   
    54   24   65 1   
    55   25   26 ar  
    56   25   30 ar  
    57   26   27 ar  
    58   26   66 1   
    59   27   28 ar  
    60   27   67 1   
    61   28   29 ar  
    62   28   68 1   
    63   29   30 ar  
    64   29   69 1   
    65   30   70 1   
    66   31   32 2   
    67   31   33 1   
    68   33   34 ar  
    69   33   38 ar  
    70   34   35 ar  
    71   35   36 ar  
    72   35   71 1   
    73   36   37 ar  
    74   36   72 1   
    75   37   38 ar  
    76   37   73 1   
    77   38   74 1   
    78   39   40 1   
    79   39   75 1   
    80   40   41 2   
    81   40   42 1   
@<TRIPOS>SUBSTRUCTURE
     1 355         1 TEMP              0 ****  ****    0 ROOT
