@<TRIPOS>MOLECULE
355
   76    81     1     0     0
SMALL
bcc


@<TRIPOS>ATOM
      1 C1          0.3110   -0.4620    0.9200 c3        1 355     -0.064800
      2 C2          1.5830    0.2260    0.5470 cc        1 355      0.042400
      3 C3          2.2530    0.9370    1.5210 cd        1 355     -0.218000
      4 C4          3.4690    1.6090    1.2260 cd        1 355     -0.046000
      5 C5          3.9850    1.5530   -0.0300 cc        1 355     -0.173000
      6 C6          3.3010    0.8080   -1.0830 cc        1 355      0.147700
      7 N1          3.8680    0.7860   -2.3040 nd        1 355     -0.380600
      8 C7          3.2380    0.0880   -3.3020 cd        1 355      0.177400
      9 C8          3.8950    0.0040   -4.6670 c3        1 355      0.134200
     10 N2          4.7420    1.1150   -5.0500 n         1 355     -0.334000
     11 C9          6.1380    0.9640   -4.8560 c         1 355      0.819500
     12 O1          6.6300   -0.1620   -4.6260 o         1 355     -0.638500
     13 N3          6.9920    2.0850   -5.0000 n         1 355     -0.493400
     14 C10         8.4030    1.8960   -4.7310 c3        1 355      0.103000
     15 C11         9.2280    1.3980   -5.9310 c3        1 355     -0.087700
     16 C12        10.6220    1.0390   -5.4370 c3        1 355     -0.078400
     17 C13        11.5200    0.6080   -6.5780 c3        1 355     -0.075900
     18 C14        11.5910    1.7080   -7.6350 c3        1 355     -0.128700
     19 C15        10.1950    2.0310   -8.1600 c3        1 355     -0.075900
     20 C16         9.2970    2.4580   -7.0160 c3        1 355     -0.078400
     21 C17        12.4780    1.2550   -8.7680 c         1 355      0.547100
     22 O2         12.8710    0.1350   -9.0430 o         1 355     -0.406100
     23 N4         12.9400    2.3450   -9.7190 ny        1 355     -0.691800
     24 C18        14.1940    3.0090   -9.2240 c3        1 355      0.180100
     25 C19        14.6650    4.0440  -10.1860 ca        1 355     -0.194300
     26 C20        14.2850    5.3810  -10.0190 ca        1 355     -0.099500
     27 C21        14.7590    6.3510  -10.9000 ca        1 355     -0.118500
     28 C22        15.6090    5.9900  -11.9470 ca        1 355     -0.076000
     29 C23        15.9900    4.6570  -12.1130 ca        1 355     -0.118500
     30 C24        15.5200    3.6820  -11.2350 ca        1 355     -0.099500
     31 C25         6.5030    3.3540   -5.3600 c         1 355      0.731100
     32 O3          7.3080    4.2800   -5.5750 o         1 355     -0.635500
     33 C26         5.0410    3.5020   -5.4620 ca        1 355     -0.209600
     34 C27         4.1880    2.3890   -5.2570 ca        1 355      0.122600
     35 C28         2.7880    2.5960   -5.3210 ca        1 355     -0.180000
     36 C29         2.2810    3.8570   -5.6020 ca        1 355     -0.058000
     37 C30         3.1320    4.9450   -5.8210 ca        1 355     -0.169000
     38 C31         4.5060    4.7660   -5.7460 ca        1 355     -0.038000
     39 C32         2.0500   -0.5770   -3.1100 cc        1 355     -0.344200
     40 C33         1.4070   -0.5770   -1.8080 c         1 355      0.590500
     41 O4          0.3320   -1.1540   -1.5750 o         1 355     -0.610500
     42 N5          2.0860    0.1520   -0.7610 n         1 355     -0.092200
     43 H1          0.3880   -1.5640    0.7350 hc        1 355      0.074033
     44 H2         -0.5440   -0.0710    0.3110 hc        1 355      0.074033
     45 H3          0.0910   -0.2920    2.0020 hc        1 355      0.074033
     46 H4          1.8450    0.9850    2.5410 ha        1 355      0.162000
     47 H5          3.9770    2.1680    2.0270 ha        1 355      0.152000
     48 H6          4.9250    2.0570   -0.3030 ha        1 355      0.170000
     49 H7          3.0870   -0.0950   -5.4490 h1        1 355      0.097200
     50 H8          4.5180   -0.9410   -4.6780 h1        1 355      0.097200
     51 H9          8.5030    1.1390   -3.8990 h1        1 355      0.081200
     52 H10         8.8220    2.8840   -4.3830 h1        1 355      0.081200
     53 H11         8.7420    0.4700   -6.3470 hc        1 355      0.077700
     54 H12        10.5520    0.1970   -4.6970 hc        1 355      0.068200
     55 H13        11.0740    1.9190   -4.9090 hc        1 355      0.068200
     56 H14        12.5490    0.3900   -6.1910 hc        1 355      0.059950
     57 H15        11.1240   -0.3330   -7.0440 hc        1 355      0.059950
     58 H16        12.0350    2.6330   -7.1660 hc        1 355      0.091700
     59 H17        10.2420    2.8570   -8.9160 hc        1 355      0.059950
     60 H18         9.7610    1.1250   -8.6590 hc        1 355      0.059950
     61 H19         9.6630    3.4250   -6.5760 hc        1 355      0.068200
     62 H20         8.2680    2.6570   -7.4190 hc        1 355      0.068200
     63 H21        13.1310    1.9410  -10.6450 hn        1 355      0.456800
     64 H22        13.9650    3.4670   -8.2190 hx        1 355      0.107700
     65 H23        14.9710    2.2000   -9.0910 hx        1 355      0.107700
     66 H24        13.6280    5.6740   -9.1860 ha        1 355      0.140000
     67 H25        14.4660    7.4050  -10.7650 ha        1 355      0.160500
     68 H26        15.9860    6.7600  -12.6400 ha        1 355      0.161000
     69 H27        16.6670    4.3740  -12.9350 ha        1 355      0.160500
     70 H28        15.8360    2.6350  -11.3580 ha        1 355      0.140000
     71 H29         2.0890    1.7670   -5.1340 ha        1 355      0.152000
     72 H30         1.1900    4.0010   -5.6490 ha        1 355      0.148000
     73 H31         2.7140    5.9380   -6.0430 ha        1 355      0.149000
     74 H32         5.1990    5.6100   -5.9010 ha        1 355      0.160000
     75 H33         1.5350   -1.1390   -3.8990 ha        1 355      0.172000
     76 H42        12.2020    3.0500   -9.8200 hn        1 355      0.456800
@<TRIPOS>BOND
     1    1    2 1   
     2    1   43 1   
     3    1   44 1   
     4    1   45 1   
     5    2    3 2   
     6    2   42 1   
     7    3    4 1   
     8    3   46 1   
     9    4    5 2   
    10    4   47 1   
    11    5    6 1   
    12    5   48 1   
    13    6    7 2   
    14    6   42 1   
    15    7    8 1   
    16    8    9 1   
    17    8   39 2   
    18    9   10 1   
    19    9   49 1   
    20    9   50 1   
    21   10   11 1   
    22   10   34 1   
    23   11   12 2   
    24   11   13 1   
    25   13   14 1   
    26   13   31 1   
    27   14   15 1   
    28   14   51 1   
    29   14   52 1   
    30   15   16 1   
    31   15   20 1   
    32   15   53 1   
    33   16   17 1   
    34   16   54 1   
    35   16   55 1   
    36   17   18 1   
    37   17   56 1   
    38   17   57 1   
    39   18   19 1   
    40   18   21 1   
    41   18   58 1   
    42   19   20 1   
    43   19   59 1   
    44   19   60 1   
    45   20   61 1   
    46   20   62 1   
    47   21   22 2   
    48   21   23 1   
    49   23   24 1   
    50   23   63 1   
    51   23   76 1   
    52   24   25 1   
    53   24   64 1   
    54   24   65 1   
    55   25   26 ar  
    56   25   30 ar  
    57   26   27 ar  
    58   26   66 1   
    59   27   28 ar  
    60   27   67 1   
    61   28   29 ar  
    62   28   68 1   
    63   29   30 ar  
    64   29   69 1   
    65   30   70 1   
    66   31   32 2   
    67   31   33 1   
    68   33   34 ar  
    69   33   38 ar  
    70   34   35 ar  
    71   35   36 ar  
    72   35   71 1   
    73   36   37 ar  
    74   36   72 1   
    75   37   38 ar  
    76   37   73 1   
    77   38   74 1   
    78   39   40 1   
    79   39   75 1   
    80   40   41 2   
    81   40   42 1   
@<TRIPOS>SUBSTRUCTURE
     1 355         1 TEMP              0 ****  ****    0 ROOT
