@<TRIPOS>MOLECULE
356
   64    68     1     0     0
SMALL
bcc


@<TRIPOS>ATOM
      1 C1         -0.0470    0.1940   -0.2410 cc        1 356     -0.327200
      2 N2          1.3320    0.1520   -0.0320 na        1 356     -0.112900
      3 C3         -0.6590    0.4410    1.0300 cd        1 356      0.503200
      4 C4         -0.8270   -0.0300   -1.4520 c         1 356      0.767100
      5 C5          1.5170    0.4080    1.3420 cc        1 356      0.580400
      6 C6          2.3400    0.0410   -1.0610 c3        1 356      0.123400
      7 N7          0.3210    0.5710    2.0190 nd        1 356     -0.715000
      8 N8         -2.0350    0.5290    1.1500 n         1 356     -0.422300
      9 N9         -2.2210    0.1120   -1.2780 n         1 356     -0.461400
     10 O10        -0.3320   -0.2960   -2.5610 o         1 356     -0.608500
     11 N11         2.8240    0.4120    1.9380 nh        1 356     -0.687300
     12 C12         2.9230    1.2890   -1.4830 c1        1 356     -0.209100
     13 C13        -2.8310    0.3340   -0.0130 c         1 356      0.826500
     14 C14        -2.6520    0.7360    2.4340 c3        1 356      0.090300
     15 C15        -3.0960   -0.2470   -2.3770 c3        1 356      0.056700
     16 C16         2.8060   -0.1590    3.2800 c3        1 356      0.162800
     17 C17         3.4540    1.7330    1.8950 c3        1 356      0.145800
     18 C18         3.4080    2.3040   -1.8950 c1        1 356     -0.064100
     19 O19        -4.0720    0.4140    0.0850 o         1 356     -0.610500
     20 C20        -3.4970   -1.7270   -2.4540 ca        1 356      0.637300
     21 C21         4.2630   -0.2860    3.8030 c3        1 356      0.105500
     22 C22         4.8740    1.7010    2.4550 c3        1 356     -0.080400
     23 C23         3.9820    3.5040   -2.4080 c3        1 356     -0.037000
     24 N24        -3.0750   -2.5840   -1.5190 nb        1 356     -0.703000
     25 N25        -4.3080   -2.0290   -3.5500 nb        1 356     -0.703000
     26 C26         4.9180    1.0970    3.8450 c3        1 356     -0.103400
     27 N27         4.2640   -0.9400    5.1580 n4        1 356     -0.839600
     28 C28        -3.4860   -3.8990   -1.6470 ca        1 356      0.424600
     29 C29        -4.7060   -3.2900   -3.6820 ca        1 356      0.492600
     30 C30        -4.3190   -4.3130   -2.7320 ca        1 356     -0.271600
     31 C31        -3.0820   -4.8770   -0.6850 ca        1 356     -0.181300
     32 C32        -5.5770   -3.6800   -4.8330 c3        1 356     -0.165400
     33 C33        -4.7210   -5.6640   -2.8320 ca        1 356     -0.088000
     34 C34        -3.4930   -6.1810   -0.8140 ca        1 356     -0.104000
     35 C35        -4.3160   -6.5810   -1.8910 ca        1 356     -0.132000
     36 H61         1.8450   -0.4520   -1.9600 h1        1 356      0.107700
     37 H62         3.1550   -0.6410   -0.6720 h1        1 356      0.107700
     38 H141       -2.4260   -0.1330    3.1080 h1        1 356      0.063367
     39 H142       -2.2450    1.6750    2.8940 h1        1 356      0.063367
     40 H143       -3.7640    0.8300    2.3080 h1        1 356      0.063367
     41 H151       -2.5660    0.0200   -3.3390 h1        1 356      0.112200
     42 H152       -4.0450    0.3600   -2.2850 h1        1 356      0.112200
     43 H161        2.2150    0.4700    4.0090 h1        1 356      0.072200
     44 H162        2.3290   -1.1770    3.2140 h1        1 356      0.072200
     45 H171        2.8500    2.4990    2.4620 h1        1 356      0.079200
     46 H172        3.4920    2.0470    0.8110 h1        1 356      0.079200
     47 H21         4.8560   -0.9660    3.1190 hx        1 356      0.125700
     48 H221        5.2590    2.7540    2.5010 hc        1 356      0.080700
     49 H222        5.5460    1.1220    1.7680 hc        1 356      0.080700
     50 H231        4.0330    3.4610   -3.5290 hc        1 356      0.068700
     51 H232        3.3590    4.3910   -2.1190 hc        1 356      0.068700
     52 H233        5.0200    3.6510   -2.0120 hc        1 356      0.068700
     53 H261        5.9830    1.0190    4.1860 hc        1 356      0.068700
     54 H262        4.3680    1.7650    4.5610 hc        1 356      0.068700
     55 H271        5.2270   -1.0260    5.4970 hn        1 356      0.460467
     56 H272        3.8390   -1.8700    5.0930 hn        1 356      0.460467
     57 H31        -2.4430   -4.5670    0.1560 ha        1 356      0.145000
     58 H321       -5.0590   -4.4660   -5.4370 hc        1 356      0.066367
     59 H322       -5.8090   -2.8140   -5.5010 hc        1 356      0.066367
     60 H323       -6.5390   -4.0950   -4.4430 hc        1 356      0.066367
     61 H33        -5.3640   -5.9730   -3.6720 ha        1 356      0.143000
     62 H34        -3.1840   -6.9340   -0.0720 ha        1 356      0.137000
     63 H35        -4.6290   -7.6340   -1.9650 ha        1 356      0.143000
     64 H273        3.7260   -0.3740    5.8210 hn        1 356      0.460467
@<TRIPOS>BOND
     1    1    2 1   
     2    1    3 2   
     3    1    4 1   
     4    2    5 1   
     5    2    6 1   
     6    3    7 1   
     7    3    8 1   
     8    4    9 1   
     9    4   10 2   
    10    5    7 2   
    11    5   11 1   
    12    6   12 1   
    13    6   36 1   
    14    6   37 1   
    15    8   13 1   
    16    8   14 1   
    17    9   13 1   
    18    9   15 1   
    19   11   16 1   
    20   11   17 1   
    21   12   18 3   
    22   13   19 2   
    23   14   38 1   
    24   14   39 1   
    25   14   40 1   
    26   15   20 1   
    27   15   41 1   
    28   15   42 1   
    29   16   21 1   
    30   16   43 1   
    31   16   44 1   
    32   17   22 1   
    33   17   45 1   
    34   17   46 1   
    35   18   23 1   
    36   20   24 ar  
    37   20   25 ar  
    38   21   26 1   
    39   21   27 1   
    40   21   47 1   
    41   22   26 1   
    42   22   48 1   
    43   22   49 1   
    44   23   50 1   
    45   23   51 1   
    46   23   52 1   
    47   24   28 ar  
    48   25   29 ar  
    49   26   53 1   
    50   26   54 1   
    51   27   55 1   
    52   27   56 1   
    53   27   64 1   
    54   28   30 ar  
    55   28   31 ar  
    56   29   30 ar  
    57   29   32 1   
    58   30   33 ar  
    59   31   34 ar  
    60   31   57 1   
    61   32   58 1   
    62   32   59 1   
    63   32   60 1   
    64   33   35 ar  
    65   33   61 1   
    66   34   35 ar  
    67   34   62 1   
    68   35   63 1   
@<TRIPOS>SUBSTRUCTURE
     1 356         1 TEMP              0 ****  ****    0 ROOT
