@<TRIPOS>MOLECULE
356
   64    68     1     0     0
SMALL
bcc


@<TRIPOS>ATOM
      1 C1          0.0730    0.2380   -0.2200 cc        1 356     -0.327200
      2 N2          1.4470    0.1520    0.0060 na        1 356     -0.112900
      3 C3         -0.5460    0.5090    1.0430 cd        1 356      0.503200
      4 C4         -0.7000    0.0350   -1.4400 c         1 356      0.767100
      5 C5          1.6240    0.4070    1.3810 cc        1 356      0.580400
      6 C6          2.4630    0.0050   -1.0120 c3        1 356      0.123400
      7 N7          0.4260    0.6100    2.0430 nd        1 356     -0.715000
      8 N8         -1.9200    0.6420    1.1470 n         1 356     -0.422300
      9 N9         -2.0900    0.2230   -1.2820 n         1 356     -0.461400
     10 O10        -0.2010   -0.2510   -2.5410 o         1 356     -0.608500
     11 N11         2.9230    0.3700    1.9920 nh        1 356     -0.687300
     12 C12         3.0910    1.2340   -1.4290 c1        1 356     -0.209100
     13 C13        -2.7080    0.4690   -0.0250 c         1 356      0.826500
     14 C14        -2.5440    0.8720    2.4230 c3        1 356      0.090300
     15 C15        -2.9640   -0.1110   -2.3900 c3        1 356      0.056700
     16 C16         2.8710   -0.1960    3.3350 c3        1 356      0.162800
     17 C17         3.5970    1.6700    1.9540 c3        1 356      0.145800
     18 C18         3.6120    2.2310   -1.8390 c1        1 356     -0.064100
     19 O19        -3.9460    0.5910    0.0580 o         1 356     -0.610500
     20 C20        -3.4130   -1.5770   -2.4660 ca        1 356      0.637300
     21 C21         4.3180   -0.3680    3.8760 c3        1 356      0.105500
     22 C22         5.0080    1.5940    2.5300 c3        1 356     -0.080400
     23 C23         4.2310    3.4100   -2.3480 c3        1 356     -0.037000
     24 N24        -3.0350   -2.4420   -1.5200 nb        1 356     -0.703000
     25 N25        -4.2170   -1.8570   -3.5730 nb        1 356     -0.703000
     26 C26         5.0160    0.9920    3.9220 c3        1 356     -0.103400
     27 N27         4.2820   -1.0190    5.2320 n4        1 356     -0.839600
     28 C28        -3.4890   -3.7440   -1.6480 ca        1 356      0.424600
     29 C29        -4.6560   -3.1050   -3.7040 ca        1 356      0.492600
     30 C30        -4.3190   -4.1350   -2.7440 ca        1 356     -0.271600
     31 C31        -3.1330   -4.7290   -0.6740 ca        1 356     -0.181300
     32 C32        -5.5220   -3.4720   -4.8670 c3        1 356     -0.165400
     33 C33        -4.7650   -5.4720   -2.8420 ca        1 356     -0.088000
     34 C34        -3.5870   -6.0190   -0.8020 ca        1 356     -0.104000
     35 C35        -4.4060   -6.3970   -1.8900 ca        1 356     -0.132000
     36 H61         3.2510   -0.7010   -0.6110 h1        1 356      0.107700
     37 H62         1.9630   -0.4740   -1.9150 h1        1 356      0.107700
     38 H141       -3.6510    1.0020    2.2840 h1        1 356      0.063367
     39 H142       -2.3540   -0.0010    3.1030 h1        1 356      0.063367
     40 H143       -2.1130    1.8000    2.8850 h1        1 356      0.063367
     41 H151       -3.8940    0.5280   -2.3110 h1        1 356      0.112200
     42 H152       -2.4140    0.1350   -3.3460 h1        1 356      0.112200
     43 H161        2.3630   -1.1990    3.2660 h1        1 356      0.072200
     44 H162        2.2930    0.4540    4.0560 h1        1 356      0.072200
     45 H171        3.6570    1.9800    0.8690 h1        1 356      0.079200
     46 H172        3.0110    2.4570    2.5110 h1        1 356      0.079200
     47 H21         4.8960   -1.0700    3.2000 hx        1 356      0.125700
     48 H221        5.4260    2.6340    2.5770 hc        1 356      0.080700
     49 H222        5.6690    0.9920    1.8520 hc        1 356      0.080700
     50 H231        5.2800    3.5080   -1.9650 hc        1 356      0.068700
     51 H232        4.2640    3.3770   -3.4690 hc        1 356      0.068700
     52 H233        3.6510    4.3200   -2.0400 hc        1 356      0.068700
     53 H261        6.0750    0.8820    4.2760 hc        1 356      0.068700
     54 H262        4.4800    1.6800    4.6290 hc        1 356      0.068700
     55 H271        3.8290   -1.9350    5.1650 hn        1 356      0.460467
     56 H272        3.7540   -0.4340    5.8870 hn        1 356      0.460467
     57 H31        -2.4970   -4.4360    0.1750 ha        1 356      0.145000
     58 H321       -5.7140   -2.6020   -5.5430 hc        1 356      0.066367
     59 H322       -5.0220   -4.2780   -5.4590 hc        1 356      0.066367
     60 H323       -6.5030   -3.8520   -4.4890 hc        1 356      0.066367
     61 H33        -5.4050   -5.7630   -3.6900 ha        1 356      0.143000
     62 H34        -3.3150   -6.7780   -0.0520 ha        1 356      0.137000
     63 H35        -4.7530   -7.4390   -1.9630 ha        1 356      0.143000
     64 H273        5.2370   -1.1340    5.5830 hn        1 356      0.460467
@<TRIPOS>BOND
     1    1    2 1   
     2    1    3 2   
     3    1    4 1   
     4    2    5 1   
     5    2    6 1   
     6    3    7 1   
     7    3    8 1   
     8    4    9 1   
     9    4   10 2   
    10    5    7 2   
    11    5   11 1   
    12    6   12 1   
    13    6   36 1   
    14    6   37 1   
    15    8   13 1   
    16    8   14 1   
    17    9   13 1   
    18    9   15 1   
    19   11   16 1   
    20   11   17 1   
    21   12   18 3   
    22   13   19 2   
    23   14   38 1   
    24   14   39 1   
    25   14   40 1   
    26   15   20 1   
    27   15   41 1   
    28   15   42 1   
    29   16   21 1   
    30   16   43 1   
    31   16   44 1   
    32   17   22 1   
    33   17   45 1   
    34   17   46 1   
    35   18   23 1   
    36   20   24 ar  
    37   20   25 ar  
    38   21   26 1   
    39   21   27 1   
    40   21   47 1   
    41   22   26 1   
    42   22   48 1   
    43   22   49 1   
    44   23   50 1   
    45   23   51 1   
    46   23   52 1   
    47   24   28 ar  
    48   25   29 ar  
    49   26   53 1   
    50   26   54 1   
    51   27   55 1   
    52   27   56 1   
    53   27   64 1   
    54   28   30 ar  
    55   28   31 ar  
    56   29   30 ar  
    57   29   32 1   
    58   30   33 ar  
    59   31   34 ar  
    60   31   57 1   
    61   32   58 1   
    62   32   59 1   
    63   32   60 1   
    64   33   35 ar  
    65   33   61 1   
    66   34   35 ar  
    67   34   62 1   
    68   35   63 1   
@<TRIPOS>SUBSTRUCTURE
     1 356         1 TEMP              0 ****  ****    0 ROOT
