@<TRIPOS>MOLECULE
356
   63    67     1     0     0
SMALL
bcc


@<TRIPOS>ATOM
      1 C1         -0.8970    0.5660   -0.5980 cc        1 356     -0.346200
      2 N2         -2.0830    0.6750    0.1350 na        1 356     -0.136900
      3 C3         -0.9910   -0.6410   -1.3590 cd        1 356      0.498200
      4 C4          0.2920    1.3990   -0.6000 c         1 356      0.770100
      5 C5         -2.8690   -0.4440   -0.2270 cc        1 356      0.639400
      6 C6         -2.4610    1.7940    0.9610 c3        1 356      0.123400
      7 N7         -2.2180   -1.2690   -1.1260 nd        1 356     -0.709000
      8 N8          0.0430   -1.0370   -2.1950 n         1 356     -0.416300
      9 N9          1.3070    0.9590   -1.4850 n         1 356     -0.468400
     10 O10         0.4410    2.4300    0.0790 o         1 356     -0.626500
     11 N11        -4.1440   -0.6740    0.3790 nh        1 356     -0.707300
     12 C12        -3.2770    2.7900    0.3080 c1        1 356     -0.178100
     13 C13         1.2250   -0.2550   -2.2240 c         1 356      0.824500
     14 C14        -0.0150   -2.3010   -2.8810 c3        1 356      0.090300
     15 C15         2.5960    1.6140   -1.4390 c3        1 356      0.059700
     16 C16        -4.4010   -2.0880    0.6430 c3        1 356      0.178800
     17 C17        -5.2280   -0.0100   -0.3450 c3        1 356      0.165800
     18 C18        -3.9390    3.6460   -0.2040 c1        1 356     -0.094100
     19 O19         2.1740   -0.6080   -2.9570 o         1 356     -0.638500
     20 C20         3.5870    1.0680   -0.4000 ca        1 356      0.638300
     21 C21        -5.7230   -2.2750    1.4380 c3        1 356      0.161500
     22 C22        -6.5710   -0.1800    0.3620 c3        1 356     -0.073400
     23 C23        -4.7210    4.6750   -0.8060 c3        1 356     -0.025000
     24 N24         3.2480    0.0240    0.3620 nb        1 356     -0.689000
     25 N25         4.8030    1.7570   -0.3640 nb        1 356     -0.704000
     26 C26        -6.8690   -1.6370    0.6350 c3        1 356     -0.121400
     27 N27        -5.9150   -3.6690    1.7820 n3        1 356     -0.901800
     28 C28         4.1900   -0.4180    1.2740 ca        1 356      0.425600
     29 C29         5.7130    1.3380    0.5080 ca        1 356      0.483600
     30 C30         5.4650    0.2160    1.3900 ca        1 356     -0.273600
     31 C31         3.8990   -1.5310    2.1250 ca        1 356     -0.173300
     32 C32         7.0350    2.0310    0.5970 c3        1 356     -0.162400
     33 C33         6.4030   -0.2630    2.3320 ca        1 356     -0.094000
     34 C34         4.8360   -1.9690    3.0290 ca        1 356     -0.109000
     35 C35         6.0950   -1.3350    3.1360 ca        1 356     -0.135000
     36 H61        -3.0210    1.3880    1.8580 h1        1 356      0.105200
     37 H62        -1.5010    2.2890    1.3150 h1        1 356      0.105200
     38 H141        0.8740   -2.4040   -3.5590 h1        1 356      0.061700
     39 H142       -0.0170   -3.1420   -2.1370 h1        1 356      0.061700
     40 H143       -0.9590   -2.3450   -3.4870 h1        1 356      0.061700
     41 H151        3.0820    1.5150   -2.4550 h1        1 356      0.107200
     42 H152        2.4190    2.7050   -1.2060 h1        1 356      0.107200
     43 H161       -4.4630   -2.6860   -0.3110 h1        1 356      0.060200
     44 H162       -3.5420   -2.4840    1.2530 h1        1 356      0.060200
     45 H171       -4.9770    1.0880   -0.4040 h1        1 356      0.050700
     46 H172       -5.3190   -0.4060   -1.3980 h1        1 356      0.050700
     47 H21        -5.6300   -1.7150    2.4170 h1        1 356      0.072700
     48 H221       -6.5690    0.3930    1.3260 hc        1 356      0.052200
     49 H222       -7.3670    0.2580   -0.2950 hc        1 356      0.052200
     50 H231       -4.2330    5.6740   -0.6590 hc        1 356      0.059700
     51 H232       -4.8270    4.4910   -1.9070 hc        1 356      0.059700
     52 H233       -5.7450    4.7110   -0.3510 hc        1 356      0.059700
     53 H261       -7.0030   -2.1840   -0.3340 hc        1 356      0.043200
     54 H262       -7.8290   -1.7210    1.2080 hc        1 356      0.043200
     55 H271       -6.7830   -3.7840    2.2690 hn        1 356      0.350300
     56 H272       -5.9220   -4.2440    0.9630 hn        1 356      0.350300
     57 H31         2.9190   -2.0260    2.0410 ha        1 356      0.154000
     58 H321        7.8500    1.2980    0.3790 hc        1 356      0.061367
     59 H322        7.1170    2.8800   -0.1260 hc        1 356      0.061367
     60 H323        7.1720    2.4320    1.6320 hc        1 356      0.061367
     61 H33         7.3830    0.2330    2.4130 ha        1 356      0.136000
     62 H34         4.6140   -2.8250    3.6840 ha        1 356      0.137000
     63 H35         6.8230   -1.7100    3.8700 ha        1 356      0.137000
@<TRIPOS>BOND
     1    1    2 1   
     2    1    3 2   
     3    1    4 1   
     4    2    5 1   
     5    2    6 1   
     6    3    7 1   
     7    3    8 1   
     8    4    9 1   
     9    4   10 2   
    10    5    7 2   
    11    5   11 1   
    12    6   12 1   
    13    6   36 1   
    14    6   37 1   
    15    8   13 1   
    16    8   14 1   
    17    9   13 1   
    18    9   15 1   
    19   11   16 1   
    20   11   17 1   
    21   12   18 3   
    22   13   19 2   
    23   14   38 1   
    24   14   39 1   
    25   14   40 1   
    26   15   20 1   
    27   15   41 1   
    28   15   42 1   
    29   16   21 1   
    30   16   43 1   
    31   16   44 1   
    32   17   22 1   
    33   17   45 1   
    34   17   46 1   
    35   18   23 1   
    36   20   24 ar  
    37   20   25 ar  
    38   21   26 1   
    39   21   27 1   
    40   21   47 1   
    41   22   26 1   
    42   22   48 1   
    43   22   49 1   
    44   23   50 1   
    45   23   51 1   
    46   23   52 1   
    47   24   28 ar  
    48   25   29 ar  
    49   26   53 1   
    50   26   54 1   
    51   27   55 1   
    52   27   56 1   
    53   28   30 ar  
    54   28   31 ar  
    55   29   30 ar  
    56   29   32 1   
    57   30   33 ar  
    58   31   34 ar  
    59   31   57 1   
    60   32   58 1   
    61   32   59 1   
    62   32   60 1   
    63   33   35 ar  
    64   33   61 1   
    65   34   35 ar  
    66   34   62 1   
    67   35   63 1   
@<TRIPOS>SUBSTRUCTURE
     1 356         1 TEMP              0 ****  ****    0 ROOT
