@<TRIPOS>MOLECULE
356
   63    55     1     0     0
SMALL
bcc


@<TRIPOS>ATOM
      1 C1          0.4050    0.9570   -0.0870 c1        1 356     -0.073000
      2 N2          1.7710    1.0120   -0.1120 n2        1 356     -0.137500
      3 C3          0.0090    0.9140    1.2220 c1        1 356     -0.073000
      4 C4         -0.6360    0.9720   -1.1920 c1        1 356      0.406000
      5 C5          2.2200    1.0040    1.1850 c1        1 356      0.095000
      6 C6          2.4680    0.7380   -1.3480 c2        1 356      0.091000
      7 N7          1.1360    0.9440    2.0070 n2        1 356     -0.137500
      8 N8         -1.4220    0.9330    1.5580 n2        1 356     -0.233000
      9 N9         -2.0080    0.9710   -0.8670 n2        1 356     -0.294000
     10 O10        -0.2880    0.9810   -2.3520 o         1 356     -0.351000
     11 N11         3.6290    0.9290    1.6070 n2        1 356     -0.198000
     12 C12         2.8770    2.0490   -2.0020 c1        1 356     -0.205000
     13 C13        -2.4160    0.9960    0.5010 c2        1 356      0.416000
     14 C14        -1.8320    0.9200    2.9180 c3        1 356     -0.065000
     15 C15        -3.0110    0.9430   -1.9260 c3        1 356      0.038000
     16 C16         3.8960   -0.3920    2.1800 c3        1 356     -0.057000
     17 C17         3.9230    2.0290    2.5450 c3        1 356     -0.071000
     18 C18         3.1990    3.0770   -2.5140 c1        1 356     -0.121000
     19 O19        -3.5980    1.0590    0.7810 o         1 356     -0.362000
     20 C20        -3.7020   -0.4290   -1.9420 c1        1 356      0.020000
     21 C21         5.3010   -0.4990    2.7740 c3        1 356     -0.036000
     22 C22         5.3250    1.9330    3.1370 c3        1 356     -0.152000
     23 C23         3.6070    4.3820   -3.1620 c2        1 356     -0.151000
     24 N24        -3.6670   -1.1480   -3.1090 n1        1 356     -0.165000
     25 N25        -4.5490   -0.8060   -0.9250 n1        1 356     -0.180000
     26 C26         5.5990    0.6030    3.7210 c3        1 356     -0.200000
     27 N27         5.4210   -1.7650    3.4740 n3        1 356     -0.334000
     28 C28        -4.4760   -2.2450   -3.2650 c1        1 356      0.033000
     29 C29        -5.3490   -1.8890   -1.0740 c1        1 356      0.063000
     30 C30        -5.3150   -2.6200   -2.2570 c1        1 356     -0.144000
     31 C31        -4.3310   -3.0710   -4.4110 c1        1 356     -0.109000
     32 C32        -5.9330   -2.0600    0.3630 c2        1 356     -0.151000
     33 C33        -6.0400   -3.8290   -2.3550 c1        1 356     -0.093000
     34 C34        -5.0430   -4.2570   -4.5050 c1        1 356     -0.122000
     35 C35        -5.8970   -4.6380   -3.4800 c1        1 356     -0.122000
     36 H61         3.2700    0.2020   -1.1600 ha        1 356      0.144000
     37 H62         1.8760    0.2400   -1.9550 ha        1 356      0.144000
     38 H141       -2.7150    1.3370    2.9970 h1        1 356      0.100667
     39 H142       -1.8780   -0.0090    3.2380 h1        1 356      0.100667
     40 H143       -1.1860    1.4200    3.4590 h1        1 356      0.100667
     41 H151       -3.6790    1.6450   -1.7630 h1        1 356      0.146500
     42 H152       -2.5760    1.1010   -2.7910 h1        1 356      0.146500
     43 H161        3.2370   -0.5700    2.8890 h1        1 356      0.099000
     44 H162        3.7960   -1.0690    1.4760 h1        1 356      0.099000
     45 H171        3.8380    2.8770    2.0710 h1        1 356      0.090000
     46 H172        3.2680    2.0070    3.2760 h1        1 356      0.090000
     47 H21         5.9540   -0.4770    2.0480 h1        1 356      0.112000
     48 H221        5.9800    2.1080    2.4320 hc        1 356      0.091500
     49 H222        5.4230    2.6120    3.8360 hc        1 356      0.091500
     50 H231        4.5730    4.5140   -3.0510 ha        1 356      0.099833
     51 H232        3.3880    4.3550   -4.1220 ha        1 356      0.099833
     52 H233        3.1250    5.1220   -2.7380 ha        1 356      0.099833
     53 H261        5.0480    0.4890    4.5210 hc        1 356      0.082500
     54 H262        6.5440    0.5560    3.9770 hc        1 356      0.082500
     55 H271        6.3080   -1.9640    3.5990 hn        1 356      0.145500
     56 H272        5.0040   -1.7040    4.2890 hn        1 356      0.145500
     57 H31        -3.7260   -2.8010   -5.1380 ha        1 356      0.154000
     58 H321       -5.3930   -2.7200    0.8610 ha        1 356      0.099833
     59 H322       -5.9080   -1.1930    0.8330 ha        1 356      0.099833
     60 H323       -6.8620   -2.3740    0.3040 ha        1 356      0.099833
     61 H33        -6.6410   -4.0980   -1.6330 ha        1 356      0.136000
     62 H34        -4.9430   -4.8280   -5.2980 ha        1 356      0.137000
     63 H35        -6.3990   -5.4760   -3.5470 ha        1 356      0.137000
@<TRIPOS>BOND
     1    1    2 1   
     2    1    3 1   
     3    2    5 1   
     4    3    7 1   
     5    4   10 1   
     6    5    7 1   
     7    6   12 1   
     8    6   36 1   
     9    6   37 1   
    10    8   13 1   
    11    8   14 1   
    12    9   13 1   
    13    9   15 1   
    14   11   16 1   
    15   11   17 1   
    16   12   18 1   
    17   13   19 1   
    18   14   38 1   
    19   14   39 1   
    20   14   40 1   
    21   15   20 1   
    22   15   41 1   
    23   15   42 1   
    24   16   21 1   
    25   16   43 1   
    26   16   44 1   
    27   17   22 1   
    28   17   45 1   
    29   17   46 1   
    30   20   25 1   
    31   21   26 1   
    32   21   27 1   
    33   21   47 1   
    34   22   26 1   
    35   22   48 1   
    36   22   49 1   
    37   23   50 1   
    38   23   51 1   
    39   23   52 1   
    40   24   28 1   
    41   26   53 1   
    42   26   54 1   
    43   27   55 1   
    44   27   56 1   
    45   28   31 1   
    46   29   30 1   
    47   30   33 1   
    48   31   57 1   
    49   32   58 1   
    50   32   59 1   
    51   32   60 1   
    52   33   61 1   
    53   34   35 1   
    54   34   62 1   
    55   35   63 1   
@<TRIPOS>SUBSTRUCTURE
     1 356         1 TEMP              0 ****  ****    0 ROOT
