@<TRIPOS>MOLECULE
356
   64    68     1     0     0
SMALL
bcc


@<TRIPOS>ATOM
      1 C1          0.0260    0.2230   -0.2780 cc        1 356     -0.327200
      2 N2          1.4000    0.1720   -0.0370 na        1 356     -0.112900
      3 C3         -0.6110    0.5040    0.9730 cd        1 356      0.503200
      4 C4         -0.7290   -0.0180   -1.5020 c         1 356      0.767100
      5 C5          1.5570    0.4550    1.3350 cc        1 356      0.580400
      6 C6          2.4290    0.0280   -1.0420 c3        1 356      0.123400
      7 N7          0.3490    0.6440    1.9810 nd        1 356     -0.715000
      8 N8         -1.9880    0.6090    1.0610 n         1 356     -0.422300
      9 N9         -2.1240    0.1420   -1.3620 n         1 356     -0.461400
     10 O10        -0.2130   -0.3130   -2.5930 o         1 356     -0.608500
     11 N11         2.8500    0.4570    1.9590 nh        1 356     -0.687300
     12 C12         3.0350    1.2610   -1.4760 c1        1 356     -0.209100
     13 C13        -2.7610    0.3980   -0.1150 c         1 356      0.826500
     14 C14        -2.6300    0.8500    2.3260 c3        1 356      0.090300
     15 C15        -2.9800   -0.2300   -2.4720 c3        1 356      0.056700
     16 C16         2.7970   -0.0850    3.3120 c3        1 356      0.162800
     17 C17         3.4970    1.7700    1.9030 c3        1 356      0.145800
     18 C18         3.5400    2.2620   -1.8990 c1        1 356     -0.064100
     19 O19        -4.0020    0.4930   -0.0470 o         1 356     -0.610500
     20 C20        -3.3950   -1.7070   -2.5270 ca        1 356      0.637300
     21 C21         4.2400   -0.2160    3.8700 c3        1 356      0.105500
     22 C22         4.9040    1.7350    2.4950 c3        1 356     -0.080400
     23 C23         4.1380    3.4450   -2.4240 c3        1 356     -0.037000
     24 N24        -3.0030   -2.5490   -1.5640 nb        1 356     -0.703000
     25 N25        -4.1840   -2.0240   -3.6340 nb        1 356     -0.703000
     26 C26         4.9100    1.1600    3.8980 c3        1 356     -0.103400
     27 N27         4.2050   -0.8420    5.2380 nz        1 356     -0.839600
     28 C28        -3.4260   -3.8620   -1.6740 ca        1 356      0.424600
     29 C29        -4.5930   -3.2830   -3.7480 ca        1 356      0.492600
     30 C30        -4.2390   -4.2900   -2.7690 ca        1 356     -0.271600
     31 C31        -3.0540   -4.8230   -0.6830 ca        1 356     -0.181300
     32 C32        -5.4430   -3.6880   -4.9100 c3        1 356     -0.165400
     33 C33        -4.6540   -5.6380   -2.8490 ca        1 356     -0.088000
     34 C34        -3.4770   -6.1250   -0.7930 ca        1 356     -0.104000
     35 C35        -4.2800   -6.5400   -1.8790 ca        1 356     -0.132000
     36 H61         3.2280   -0.6540   -0.6200 h1        1 356      0.107700
     37 H62         1.9490   -0.4780   -1.9410 h1        1 356      0.107700
     38 H141       -3.7390    0.9530    2.1740 h1        1 356      0.063367
     39 H142       -2.4290   -0.0070    3.0240 h1        1 356      0.063367
     40 H143       -2.2240    1.7950    2.7750 h1        1 356      0.063367
     41 H151       -3.9240    0.3880   -2.4130 h1        1 356      0.112200
     42 H152       -2.4260    0.0110   -3.4270 h1        1 356      0.112200
     43 H161        2.1970    0.5660    4.0150 h1        1 356      0.072200
     44 H162        2.3110   -1.1000    3.2570 h1        1 356      0.072200
     45 H171        3.5620    2.0610    0.8130 h1        1 356      0.079200
     46 H172        2.8880    2.5550    2.4400 h1        1 356      0.079200
     47 H21         4.8410   -0.9170    3.2140 hx        1 356      0.125700
     48 H221        5.5840    1.1350    1.8350 hc        1 356      0.080700
     49 H222        5.2990    2.7840    2.5270 hc        1 356      0.080700
     50 H231        4.2270    3.3710   -3.5400 hc        1 356      0.068700
     51 H232        3.5110    4.3420   -2.1800 hc        1 356      0.068700
     52 H233        5.1630    3.5980   -1.9960 hc        1 356      0.068700
     53 H261        4.3510    1.8490    4.5870 hc        1 356      0.068700
     54 H262        5.9660    1.0780    4.2640 hc        1 356      0.068700
     55 H271        5.1580   -0.9310    5.6000 hn        1 356      0.460467
     56 H272        3.6580   -0.2560    5.8770 hn        1 356      0.460467
     57 H31        -2.4300   -4.5020    0.1660 ha        1 356      0.145000
     58 H321       -6.4180   -4.0850   -4.5320 hc        1 356      0.066367
     59 H322       -5.6510   -2.8340   -5.6010 hc        1 356      0.066367
     60 H323       -4.9200   -4.4920   -5.4860 hc        1 356      0.066367
     61 H33        -5.2810   -5.9580   -3.6960 ha        1 356      0.143000
     62 H34        -3.1930   -6.8660   -0.0290 ha        1 356      0.137000
     63 H35        -4.6020   -7.5900   -1.9390 ha        1 356      0.143000
     64 H273        3.7710   -1.7690    5.1830 hn        1 356      0.460467
@<TRIPOS>BOND
     1    1    2 1   
     2    1    3 2   
     3    1    4 1   
     4    2    5 1   
     5    2    6 1   
     6    3    7 1   
     7    3    8 1   
     8    4    9 1   
     9    4   10 2   
    10    5    7 2   
    11    5   11 1   
    12    6   12 1   
    13    6   36 1   
    14    6   37 1   
    15    8   13 1   
    16    8   14 1   
    17    9   13 1   
    18    9   15 1   
    19   11   16 1   
    20   11   17 1   
    21   12   18 3   
    22   13   19 2   
    23   14   38 1   
    24   14   39 1   
    25   14   40 1   
    26   15   20 1   
    27   15   41 1   
    28   15   42 1   
    29   16   21 1   
    30   16   43 1   
    31   16   44 1   
    32   17   22 1   
    33   17   45 1   
    34   17   46 1   
    35   18   23 1   
    36   20   24 ar  
    37   20   25 ar  
    38   21   26 1   
    39   21   27 1   
    40   21   47 1   
    41   22   26 1   
    42   22   48 1   
    43   22   49 1   
    44   23   50 1   
    45   23   51 1   
    46   23   52 1   
    47   24   28 ar  
    48   25   29 ar  
    49   26   53 1   
    50   26   54 1   
    51   27   55 1   
    52   27   56 1   
    53   27   64 1   
    54   28   30 ar  
    55   28   31 ar  
    56   29   30 ar  
    57   29   32 1   
    58   30   33 ar  
    59   31   34 ar  
    60   31   57 1   
    61   32   58 1   
    62   32   59 1   
    63   32   60 1   
    64   33   35 ar  
    65   33   61 1   
    66   34   35 ar  
    67   34   62 1   
    68   35   63 1   
@<TRIPOS>SUBSTRUCTURE
     1 356         1 TEMP              0 ****  ****    0 ROOT
