@<TRIPOS>MOLECULE
357
   52    47     1     0     0
SMALL
bcc


@<TRIPOS>ATOM
      1 C2         -2.5920    0.5490   -0.6490 c1        1 357      0.303000
      2 C3         -1.2050    0.5500   -0.6360 c1        1 357     -0.108000
      3 C4         -0.5160    0.6090    0.5900 c1        1 357      0.056000
      4 C5         -1.2200    0.6650    1.7730 c1        1 357     -0.175000
      5 O8         -3.2180    0.6430   -1.7590 o         1 357     -0.382000
      6 C10        -0.4730    0.8580    3.1080 c2        1 357     -0.115000
      7 C11        -0.6310    2.2690    3.5810 c3        1 357     -0.209000
      8 C1'         1.6190   -0.5000    1.3470 c1        1 357     -0.061000
      9 C7'         1.0250    0.7160    0.6060 c2        1 357     -0.095000
     10 C6         -2.6200    0.6630    1.7550 c2        1 357      0.062000
     11 C7         -3.3860    0.5640    3.0550 c3        1 357     -0.195000
     12 N1         -3.2990    0.6050    0.5500 n2        1 357     -0.275000
     13 N1'        -0.3240    0.6210   -2.1310 n3        1 357     -0.212000
     14 C6'         0.0540    2.2750   -2.4770 c3        1 357     -0.122000
     15 C2'        -1.3010    0.0200   -3.3650 c3        1 357     -0.074000
     16 C3'        -0.4410   -0.1890   -4.6630 c3        1 357     -0.025000
     17 O4'        -1.1360   -1.0320   -5.5540 os        1 357     -0.281000
     18 C5'        -0.3860   -1.3650   -6.7530 c3        1 357     -0.071000
     19 C6B         0.8500   -1.6570    1.5230 c1        1 357     -0.124000
     20 C5B         1.3860   -2.7450    2.1850 c1        1 357     -0.129000
     21 C4'         2.6900   -2.6880    2.6760 c1        1 357     -0.129000
     22 C3B         3.4590   -1.5210    2.4970 c1        1 357     -0.071000
     23 C8'         4.9630   -1.5070    2.9080 c3        1 357     -0.178000
     24 C2B         2.9270   -0.4460    1.8410 c2        1 357     -0.136000
     25 H101       -0.8430    0.2580    3.7730 ha        1 357      0.092000
     26 H102        0.5070    0.6540    2.9790 ha        1 357      0.092000
     27 H111       -0.7800    2.2690    4.6030 hc        1 357      0.074000
     28 H112        0.1570    2.7670    3.3750 hc        1 357      0.074000
     29 H113       -1.4020    2.6790    3.1380 hc        1 357      0.074000
     30 H7'1        1.2710    1.4820    1.0370 ha        1 357      0.109500
     31 H7'2        1.3810    0.7380   -0.3640 ha        1 357      0.109500
     32 H71        -3.3170   -0.3020    3.3890 hc        1 357      0.099000
     33 H72        -4.3200    0.7770    2.8990 hc        1 357      0.099000
     34 H73        -3.0120    1.1950    3.7040 hc        1 357      0.099000
     35 HN1        -4.2180    0.6040    0.5420 hn        1 357      0.244000
     36 H6'1       -0.7320    2.7200   -2.8270 h1        1 357      0.079667
     37 H6'2        0.3370    2.7110   -1.6760 h1        1 357      0.079667
     38 H6'3        0.7490    2.3120   -3.1200 h1        1 357      0.079667
     39 H2'1       -2.0200    0.6600   -3.5500 h1        1 357      0.101500
     40 H2'2       -1.6950   -0.8450   -3.0840 h1        1 357      0.101500
     41 H3'1        0.4560   -0.6170   -4.4170 h1        1 357      0.071500
     42 H3'2       -0.2840    0.6650   -5.0840 h1        1 357      0.071500
     43 H5'1        0.5610   -1.6740   -6.4920 h1        1 357      0.071000
     44 H5'2       -0.3240   -0.5760   -7.3280 h1        1 357      0.071000
     45 H5'3       -0.8300   -2.0660   -7.2230 h1        1 357      0.071000
     46 H6'        -0.0690   -1.6940    1.1760 ha        1 357      0.147000
     47 H5'         0.8290   -3.5890    2.3150 ha        1 357      0.131000
     48 H4'         3.0570   -3.4290    3.1300 ha        1 357      0.131000
     49 H8'1        5.0550   -1.1220    3.8650 hc        1 357      0.082333
     50 H8'2        5.2930   -2.3600    2.8890 hc        1 357      0.082333
     51 H8'3        5.4610   -0.9570    2.2900 hc        1 357      0.082333
     52 H2'         3.4500    0.3440    1.7200 ha        1 357      0.128000
@<TRIPOS>BOND
     1    1    2 1   
     2    1    5 1   
     3    2   13 1   
     4    3    4 1   
     5    3    9 1   
     6    4   10 1   
     7    6    7 1   
     8    6   25 1   
     9    6   26 1   
    10    7   27 1   
    11    7   28 1   
    12    7   29 1   
    13    8   19 1   
    14    8   24 1   
    15    9   30 1   
    16    9   31 1   
    17   10   11 1   
    18   10   12 1   
    19   11   32 1   
    20   11   33 1   
    21   11   34 1   
    22   12   35 1   
    23   13   14 1   
    24   13   15 1   
    25   14   36 1   
    26   14   37 1   
    27   14   38 1   
    28   15   16 1   
    29   15   39 1   
    30   15   40 1   
    31   16   17 1   
    32   16   41 1   
    33   16   42 1   
    34   17   18 1   
    35   18   43 1   
    36   18   44 1   
    37   18   45 1   
    38   19   46 1   
    39   20   21 1   
    40   20   47 1   
    41   21   48 1   
    42   22   23 1   
    43   22   24 1   
    44   23   49 1   
    45   23   50 1   
    46   23   51 1   
    47   24   52 1   
@<TRIPOS>SUBSTRUCTURE
     1 357         1 TEMP              0 ****  ****    0 ROOT
