@<TRIPOS>MOLECULE
357
   52    53     1     0     0
SMALL
bcc


@<TRIPOS>ATOM
      1 C2         -1.7950    0.9770   -0.8100 c         1 357      0.665700
      2 C3         -0.9800    0.1600    0.1190 cc        1 357     -0.031200
      3 C4          0.2580    0.6250    0.5220 cd        1 357      0.037800
      4 C5          0.7410    1.9000    0.0570 cd        1 357     -0.172200
      5 O8         -2.9340    0.6810   -1.2360 o         1 357     -0.671500
      6 C10         2.0630    2.4190    0.5080 c3        1 357     -0.033200
      7 C11         1.9570    3.2650    1.7560 c3        1 357     -0.091100
      8 C1'         2.2160   -0.9070    0.7970 ca        1 357     -0.067300
      9 C7'         1.1110   -0.1610    1.4690 c3        1 357     -0.002900
     10 C6         -0.0210    2.6460   -0.8260 cc        1 357      0.053400
     11 C7          0.4550    3.9620   -1.3540 c3        1 357     -0.071900
     12 N1         -1.2500    2.1850   -1.2560 n         1 357     -0.430100
     13 N1'        -1.4740   -1.1070    0.5470 nh        1 357     -0.624400
     14 C6'        -1.9850   -1.9500   -0.5130 c3        1 357      0.167100
     15 C2'        -2.3050   -1.0690    1.7370 c3        1 357      0.173800
     16 C3'        -3.7240   -0.5000    1.6090 c3        1 357      0.092400
     17 O4'        -4.5610   -1.5240    1.0770 os        1 357     -0.429600
     18 C5'        -5.5210   -1.0390    0.1520 c3        1 357      0.110700
     19 C6B         3.5230   -0.8090    1.2920 ca        1 357     -0.141000
     20 C5B         4.5530   -1.5360    0.6970 ca        1 357     -0.128000
     21 C4'         4.2910   -2.3630   -0.3920 ca        1 357     -0.133000
     22 C3B         2.9890   -2.4720   -0.8940 ca        1 357     -0.076300
     23 C8'         2.7040   -3.3420   -2.0590 c3        1 357     -0.053800
     24 C2B         1.9570   -1.7430   -0.2930 ca        1 357     -0.117000
     25 H101        2.5340    3.0290   -0.3110 hc        1 357      0.053200
     26 H102        2.7660    1.5610    0.6960 hc        1 357      0.053200
     27 H111        1.3030    4.1530    1.5810 hc        1 357      0.034700
     28 H112        1.5240    2.6780    2.6010 hc        1 357      0.034700
     29 H113        2.9700    3.6260    2.0580 hc        1 357      0.034700
     30 H7'1        1.5370    0.5440    2.2380 hc        1 357      0.068200
     31 H7'2        0.4910   -0.9080    2.0390 hc        1 357      0.068200
     32 H71         1.3160    3.7920   -2.0500 hc        1 357      0.059700
     33 H72        -0.3390    4.5190   -1.9090 hc        1 357      0.059700
     34 H73         0.8020    4.6040   -0.5050 hc        1 357      0.059700
     35 HN1        -1.7860    2.7400   -1.8880 hn        1 357      0.330500
     36 H6'1       -1.2830   -1.9130   -1.3860 h1        1 357      0.044033
     37 H6'2       -2.0310   -2.9990   -0.1180 h1        1 357      0.044033
     38 H6'3       -3.0130   -1.6490   -0.8570 h1        1 357      0.044033
     39 H2'1       -2.3860   -2.1320    2.1030 h1        1 357      0.059200
     40 H2'2       -1.7640   -0.4590    2.5140 h1        1 357      0.059200
     41 H3'1       -4.1160   -0.2460    2.6310 h1        1 357      0.043700
     42 H3'2       -3.7370    0.4180    0.9650 h1        1 357      0.043700
     43 H5'1       -6.2390   -0.3510    0.6630 h1        1 357      0.037700
     44 H5'2       -5.0210   -0.5100   -0.6980 h1        1 357      0.037700
     45 H5'3       -6.0480   -1.9570   -0.2070 h1        1 357      0.037700
     46 H6'         3.7380   -0.1610    2.1540 ha        1 357      0.127000
     47 H5'         5.5770   -1.4570    1.0910 ha        1 357      0.129000
     48 H4'         5.1060   -2.9360   -0.8580 ha        1 357      0.130000
     49 H8'1        1.6700   -3.7620   -2.0010 hc        1 357      0.044367
     50 H8'2        2.7890   -2.7500   -3.0060 hc        1 357      0.044367
     51 H8'3        3.4290   -4.1910   -2.1120 hc        1 357      0.044367
     52 H2'         0.9270   -1.8320   -0.6750 ha        1 357      0.148000
@<TRIPOS>BOND
     1    1    2 1   
     2    1    5 2   
     3    1   12 1   
     4    2    3 2   
     5    2   13 1   
     6    3    4 1   
     7    3    9 1   
     8    4    6 1   
     9    4   10 2   
    10    6    7 1   
    11    6   25 1   
    12    6   26 1   
    13    7   27 1   
    14    7   28 1   
    15    7   29 1   
    16    8    9 1   
    17    8   19 ar  
    18    8   24 ar  
    19    9   30 1   
    20    9   31 1   
    21   10   11 1   
    22   10   12 1   
    23   11   32 1   
    24   11   33 1   
    25   11   34 1   
    26   12   35 1   
    27   13   14 1   
    28   13   15 1   
    29   14   36 1   
    30   14   37 1   
    31   14   38 1   
    32   15   16 1   
    33   15   39 1   
    34   15   40 1   
    35   16   17 1   
    36   16   41 1   
    37   16   42 1   
    38   17   18 1   
    39   18   43 1   
    40   18   44 1   
    41   18   45 1   
    42   19   20 ar  
    43   19   46 1   
    44   20   21 ar  
    45   20   47 1   
    46   21   22 ar  
    47   21   48 1   
    48   22   23 1   
    49   22   24 ar  
    50   23   49 1   
    51   23   50 1   
    52   23   51 1   
    53   24   52 1   
@<TRIPOS>SUBSTRUCTURE
     1 357         1 TEMP              0 ****  ****    0 ROOT
