@<TRIPOS>MOLECULE
358
   55    59     1     0     0
SMALL
bcc


@<TRIPOS>ATOM
      1 CL1         0.0960    0.1970    0.0550 cl        1 358     -0.067900
      2 C1          1.7910    0.1000    0.0320 ca        1 358      0.035900
      3 C2          2.4770    0.1120    1.2500 ca        1 358     -0.126500
      4 C3          3.8660    0.0290    1.2690 ca        1 358     -0.106000
      5 C4          4.5800   -0.0640    0.0770 ca        1 358     -0.126500
      6 C5          3.9040   -0.0730   -1.1450 ca        1 358      0.035900
      7 CL2         4.8130   -0.1870   -2.5750 cl        1 358     -0.067900
      8 C6          2.4910    0.0080   -1.1940 ca        1 358      0.052600
      9 N1          1.7970   -0.0290   -2.4350 n         1 358     -0.302200
     10 C7          1.4730   -1.2700   -3.0130 c         1 358      0.715500
     11 O1          1.7750   -2.3300   -2.4430 o         1 358     -0.601500
     12 C8          0.7810   -1.2530   -4.3560 c3        1 358     -0.142400
     13 C9         -0.1720   -0.0910   -4.5070 c3        1 358     -0.038100
     14 C10         0.4450    1.1920   -4.0790 ca        1 358     -0.096300
     15 C11         1.4140    1.1890   -3.0420 ca        1 358      0.086600
     16 C12         1.9880    2.4090   -2.6280 ca        1 358     -0.152000
     17 C13         1.6070    3.6120   -3.2240 ca        1 358     -0.046300
     18 C14         0.6510    3.6080   -4.2420 ca        1 358     -0.133000
     19 C15         0.0690    2.4080   -4.6650 cp        1 358     -0.013000
     20 C16        -0.9230    2.4630   -5.7440 cp        1 358     -0.088000
     21 C17        -0.5200    2.8720   -7.0220 ca        1 358     -0.072000
     22 C18        -1.4210    2.9640   -8.0750 ca        1 358     -0.182000
     23 C19        -2.7750    2.6470   -7.8560 ca        1 358      0.155900
     24 F1         -3.6620    2.7340   -8.8740 f         1 358     -0.132900
     25 C20        -3.2140    2.2410   -6.5870 ca        1 358     -0.212000
     26 C21        -2.2860    2.1510   -5.5340 ca        1 358      0.164900
     27 F2         -2.7310    1.7620   -4.3160 f         1 358     -0.127900
     28 C22         2.2300    4.8930   -2.7630 c3        1 358     -0.022400
     29 C23         2.9980    5.5690   -3.8930 c3        1 358     -0.072400
     30 C24         3.5930    6.8940   -3.4220 c3        1 358      0.162800
     31 N2          2.6130    7.7820   -2.8290 n3        1 358     -0.821200
     32 C25         1.8220    7.1670   -1.7820 c3        1 358      0.162800
     33 C26         1.1800    5.8480   -2.2080 c3        1 358     -0.072400
     34 H2          1.9150    0.1800    2.1940 ha        1 358      0.154000
     35 H3          4.4030    0.0320    2.2300 ha        1 358      0.145000
     36 H4          5.6790   -0.1360    0.0960 ha        1 358      0.154000
     37 H81         0.2310   -2.2240   -4.4730 hc        1 358      0.083200
     38 H82         1.5800   -1.2110   -5.1450 hc        1 358      0.083200
     39 H91        -1.0960   -0.2650   -3.8870 hc        1 358      0.067700
     40 H92        -0.5050   -0.0280   -5.5780 hc        1 358      0.067700
     41 H12         2.7440    2.4190   -1.8270 ha        1 358      0.145000
     42 H14         0.3460    4.5540   -4.7150 ha        1 358      0.144000
     43 H17         0.5390    3.1250   -7.1890 ha        1 358      0.151000
     44 H18        -1.0910    3.2830   -9.0740 ha        1 358      0.156000
     45 H20        -4.2720    1.9990   -6.4130 ha        1 358      0.167000
     46 H22         2.9620    4.6650   -1.9350 hc        1 358      0.052700
     47 H231        3.8300    4.9050   -4.2410 hc        1 358      0.052200
     48 H232        2.3120    5.7470   -4.7620 hc        1 358      0.052200
     49 H241        4.4410    6.6640   -2.7100 h1        1 358      0.027950
     50 H242        4.0340    7.4300   -4.3100 h1        1 358      0.027950
     51 HN2         3.0670    8.6040   -2.4760 hn        1 358      0.362800
     52 H251        2.4330    6.9740   -0.8490 h1        1 358      0.027950
     53 H252        1.0080    7.8960   -1.5080 h1        1 358      0.027950
     54 H261        0.3950    6.0400   -2.9850 hc        1 358      0.052200
     55 H262        0.6780    5.3890   -1.3180 hc        1 358      0.052200
@<TRIPOS>BOND
     1    1    2 1   
     2    2    3 ar  
     3    2    8 ar  
     4    3    4 ar  
     5    3   34 1   
     6    4    5 ar  
     7    4   35 1   
     8    5    6 ar  
     9    5   36 1   
    10    6    7 1   
    11    6    8 ar  
    12    8    9 1   
    13    9   10 1   
    14    9   15 1   
    15   10   11 2   
    16   10   12 1   
    17   12   13 1   
    18   12   37 1   
    19   12   38 1   
    20   13   14 1   
    21   13   39 1   
    22   13   40 1   
    23   14   15 ar  
    24   14   19 ar  
    25   15   16 ar  
    26   16   17 ar  
    27   16   41 1   
    28   17   18 ar  
    29   17   28 1   
    30   18   19 ar  
    31   18   42 1   
    32   19   20 1   
    33   20   21 ar  
    34   20   26 ar  
    35   21   22 ar  
    36   21   43 1   
    37   22   23 ar  
    38   22   44 1   
    39   23   24 1   
    40   23   25 ar  
    41   25   26 ar  
    42   25   45 1   
    43   26   27 1   
    44   28   29 1   
    45   28   33 1   
    46   28   46 1   
    47   29   30 1   
    48   29   47 1   
    49   29   48 1   
    50   30   31 1   
    51   30   49 1   
    52   30   50 1   
    53   31   32 1   
    54   31   51 1   
    55   32   33 1   
    56   32   52 1   
    57   32   53 1   
    58   33   54 1   
    59   33   55 1   
@<TRIPOS>SUBSTRUCTURE
     1 358         1 TEMP              0 ****  ****    0 ROOT
