@<TRIPOS>MOLECULE
358
   55    59     1     0     0
SMALL
bcc


@<TRIPOS>ATOM
      1 Cl1         0.0970    0.1990    0.0550 cl        1 358     -0.067900
      2 C1          1.7910    0.1010    0.0320 ca        1 358      0.035900
      3 C2          2.4770    0.1130    1.2500 ca        1 358     -0.126500
      4 C3          3.8670    0.0290    1.2690 ca        1 358     -0.106000
      5 C4          4.5800   -0.0650    0.0770 ca        1 358     -0.126500
      6 C5          3.9030   -0.0740   -1.1450 ca        1 358      0.035900
      7 Cl2         4.8130   -0.1890   -2.5750 cl        1 358     -0.067900
      8 C6          2.4910    0.0080   -1.1940 ca        1 358      0.052600
      9 N1          1.7970   -0.0290   -2.4340 n         1 358     -0.302200
     10 C7          1.4730   -1.2700   -3.0130 c         1 358      0.715500
     11 O1          1.7740   -2.3300   -2.4430 o         1 358     -0.601500
     12 C8          0.7820   -1.2530   -4.3560 c3        1 358     -0.142400
     13 C9         -0.1710   -0.0910   -4.5080 c3        1 358     -0.038100
     14 C10         0.4460    1.1920   -4.0790 ca        1 358     -0.096300
     15 C11         1.4140    1.1890   -3.0420 ca        1 358      0.086600
     16 C12         1.9870    2.4090   -2.6280 ca        1 358     -0.152000
     17 C13         1.6060    3.6120   -3.2230 ca        1 358     -0.046300
     18 C14         0.6510    3.6080   -4.2420 ca        1 358     -0.133000
     19 C15         0.0700    2.4080   -4.6650 cp        1 358     -0.013000
     20 C16        -0.9220    2.4630   -5.7450 cp        1 358     -0.088000
     21 C17        -0.5170    2.8700   -7.0240 ca        1 358     -0.072000
     22 C18        -1.4170    2.9610   -8.0770 ca        1 358     -0.182000
     23 C19        -2.7720    2.6460   -7.8590 ca        1 358      0.155900
     24 F1         -3.6580    2.7320   -8.8780 f         1 358     -0.132900
     25 C20        -3.2120    2.2420   -6.5900 ca        1 358     -0.212000
     26 C21        -2.2850    2.1520   -5.5360 ca        1 358      0.164900
     27 F2         -2.7310    1.7640   -4.3180 f         1 358     -0.127900
     28 C22         2.2280    4.8930   -2.7620 c3        1 358     -0.022400
     29 C23         2.9960    5.5700   -3.8910 c3        1 358     -0.072400
     30 C24         3.5910    6.8960   -3.4200 c3        1 358      0.162800
     31 N2          2.6100    7.7830   -2.8270 n7        1 358     -0.821200
     32 C25         1.8190    7.1670   -1.7800 c3        1 358      0.162800
     33 C26         1.1780    5.8470   -2.2070 c3        1 358     -0.072400
     34 H2          1.9150    0.1820    2.1940 ha        1 358      0.154000
     35 H3          4.4030    0.0320    2.2300 ha        1 358      0.145000
     36 H4          5.6790   -0.1370    0.0960 ha        1 358      0.154000
     37 H81         1.5810   -1.2120   -5.1450 hc        1 358      0.083200
     38 H82         0.2320   -2.2240   -4.4730 hc        1 358      0.083200
     39 H91        -1.0950   -0.2650   -3.8880 hc        1 358      0.067700
     40 H92        -0.5030   -0.0280   -5.5790 hc        1 358      0.067700
     41 H12         2.7430    2.4200   -1.8260 ha        1 358      0.145000
     42 H14         0.3470    4.5540   -4.7150 ha        1 358      0.144000
     43 H17         0.5420    3.1220   -7.1910 ha        1 358      0.151000
     44 H18        -1.0860    3.2790   -9.0760 ha        1 358      0.156000
     45 H20        -4.2700    2.0000   -6.4160 ha        1 358      0.167000
     46 H22         2.9610    4.6650   -1.9340 hc        1 358      0.052700
     47 H231        2.3110    5.7480   -4.7600 hc        1 358      0.052200
     48 H232        3.8290    4.9070   -4.2390 hc        1 358      0.052200
     49 H241        4.0320    7.4330   -4.3080 h1        1 358      0.027950
     50 H242        4.4390    6.6660   -2.7070 h1        1 358      0.027950
     51 HN2         3.0630    8.6050   -2.4730 hn        1 358      0.362800
     52 H251        2.4290    6.9740   -0.8470 h1        1 358      0.027950
     53 H252        1.0040    7.8940   -1.5060 h1        1 358      0.027950
     54 H261        0.6760    5.3870   -1.3180 hc        1 358      0.052200
     55 H262        0.3930    6.0390   -2.9840 hc        1 358      0.052200
@<TRIPOS>BOND
     1    1    2 1   
     2    2    3 ar  
     3    2    8 ar  
     4    3    4 ar  
     5    3   34 1   
     6    4    5 ar  
     7    4   35 1   
     8    5    6 ar  
     9    5   36 1   
    10    6    7 1   
    11    6    8 ar  
    12    8    9 1   
    13    9   10 1   
    14    9   15 1   
    15   10   11 2   
    16   10   12 1   
    17   12   13 1   
    18   12   37 1   
    19   12   38 1   
    20   13   14 1   
    21   13   39 1   
    22   13   40 1   
    23   14   15 ar  
    24   14   19 ar  
    25   15   16 ar  
    26   16   17 ar  
    27   16   41 1   
    28   17   18 ar  
    29   17   28 1   
    30   18   19 ar  
    31   18   42 1   
    32   19   20 1   
    33   20   21 ar  
    34   20   26 ar  
    35   21   22 ar  
    36   21   43 1   
    37   22   23 ar  
    38   22   44 1   
    39   23   24 1   
    40   23   25 ar  
    41   25   26 ar  
    42   25   45 1   
    43   26   27 1   
    44   28   29 1   
    45   28   33 1   
    46   28   46 1   
    47   29   30 1   
    48   29   47 1   
    49   29   48 1   
    50   30   31 1   
    51   30   49 1   
    52   30   50 1   
    53   31   32 1   
    54   31   51 1   
    55   32   33 1   
    56   32   52 1   
    57   32   53 1   
    58   33   54 1   
    59   33   55 1   
@<TRIPOS>SUBSTRUCTURE
     1 358         1 TEMP              0 ****  ****    0 ROOT
