@<TRIPOS>MOLECULE
358
   55    59     1     0     0
SMALL
bcc


@<TRIPOS>ATOM
      1 CL1         1.4920   -2.5370    2.4680 cl        1 358     -0.067900
      2 C1          0.9180   -1.2970    3.4750 ca        1 358      0.035900
      3 C2          0.4830   -1.6290    4.7610 ca        1 358     -0.126500
      4 C3          0.0110   -0.6370    5.6160 ca        1 358     -0.106000
      5 C4         -0.0320    0.6900    5.1960 ca        1 358     -0.126500
      6 C5          0.3980    1.0310    3.9110 ca        1 358      0.035900
      7 CL2         0.3270    2.6610    3.4380 cl        1 358     -0.067900
      8 C6          0.8840    0.0430    3.0220 ca        1 358      0.052600
      9 N1          1.3480    0.3900    1.7230 n         1 358     -0.302200
     10 C7          2.6790    0.8110    1.5500 c         1 358      0.715500
     11 O1          3.4540    0.8690    2.5180 o         1 358     -0.601500
     12 C8          3.1070    1.2180    0.1590 c3        1 358     -0.142400
     13 C9          2.4410    0.3950   -0.9190 c3        1 358     -0.038100
     14 C10         0.9760    0.2740   -0.7000 ca        1 358     -0.096300
     15 C11         0.4660    0.2660    0.6240 ca        1 358      0.086600
     16 C12        -0.9230    0.1360    0.8300 ca        1 358     -0.152000
     17 C13        -1.7930    0.0090   -0.2540 ca        1 358     -0.046300
     18 C14        -1.2840    0.0150   -1.5540 ca        1 358     -0.133000
     19 C15         0.0910    0.1410   -1.7780 cp        1 358     -0.013000
     20 C16         0.5680    0.1490   -3.1660 cp        1 358     -0.088000
     21 C17         0.2010    1.2080   -4.0070 ca        1 358     -0.072000
     22 C18         0.6050    1.2560   -5.3350 ca        1 358     -0.182000
     23 C19         1.3970    0.2140   -5.8550 ca        1 358      0.155900
     24 F1          1.7950    0.2500   -7.1480 f         1 358     -0.132900
     25 C20         1.7760   -0.8640   -5.0420 ca        1 358     -0.212000
     26 C21         1.3590   -0.8930   -3.6990 ca        1 358      0.164900
     27 F2          1.7330   -1.9450   -2.9320 f         1 358     -0.127900
     28 C22        -3.2630   -0.1310   -0.0070 c3        1 358     -0.022400
     29 C23        -4.0370    1.0280   -0.6230 c3        1 358     -0.072400
     30 C24        -5.5390    0.8520   -0.4000 c3        1 358      0.162800
     31 N2         -6.0360   -0.4320   -0.8540 n3        1 358     -0.821200
     32 C25        -5.2970   -1.5650   -0.3330 c3        1 358      0.162800
     33 C26        -3.7890   -1.4530   -0.5520 c3        1 358     -0.072400
     34 H2          0.5200   -2.6770    5.0990 ha        1 358      0.154000
     35 H3         -0.3250   -0.9010    6.6300 ha        1 358      0.145000
     36 H4         -0.4000    1.4730    5.8760 ha        1 358      0.154000
     37 H81         2.8550    2.3060    0.0350 hc        1 358      0.083200
     38 H82         4.2220    1.1120    0.0960 hc        1 358      0.083200
     39 H91         2.6500    0.8650   -1.9180 hc        1 358      0.067700
     40 H92         2.8840   -0.6400   -0.9450 hc        1 358      0.067700
     41 H12        -1.3310    0.1320    1.8530 ha        1 358      0.145000
     42 H14        -1.9670   -0.0860   -2.4130 ha        1 358      0.144000
     43 H17        -0.4240    2.0190   -3.6000 ha        1 358      0.151000
     44 H18         0.3130    2.0940   -5.9840 ha        1 358      0.156000
     45 H20         2.3890   -1.6810   -5.4470 ha        1 358      0.167000
     46 H22        -3.4480   -0.1180    1.1070 hc        1 358      0.052700
     47 H231       -3.7160    1.9930   -0.1560 hc        1 358      0.052200
     48 H232       -3.8200    1.0860   -1.7210 hc        1 358      0.052200
     49 H241       -5.7520    1.0250    0.6970 h1        1 358      0.027950
     50 H242       -6.0880    1.6460   -0.9810 h1        1 358      0.027950
     51 HN2        -7.0080   -0.5230   -0.6220 hn        1 358      0.362800
     52 H251       -5.4800   -1.7160    0.7730 h1        1 358      0.027950
     53 H252       -5.6750   -2.4830   -0.8660 h1        1 358      0.027950
     54 H261       -3.5570   -1.5310   -1.6460 hc        1 358      0.052200
     55 H262       -3.2870   -2.3080   -0.0330 hc        1 358      0.052200
@<TRIPOS>BOND
     1    1    2 1   
     2    2    3 ar  
     3    2    8 ar  
     4    3    4 ar  
     5    3   34 1   
     6    4    5 ar  
     7    4   35 1   
     8    5    6 ar  
     9    5   36 1   
    10    6    7 1   
    11    6    8 ar  
    12    8    9 1   
    13    9   10 1   
    14    9   15 1   
    15   10   11 2   
    16   10   12 1   
    17   12   13 1   
    18   12   37 1   
    19   12   38 1   
    20   13   14 1   
    21   13   39 1   
    22   13   40 1   
    23   14   15 ar  
    24   14   19 ar  
    25   15   16 ar  
    26   16   17 ar  
    27   16   41 1   
    28   17   18 ar  
    29   17   28 1   
    30   18   19 ar  
    31   18   42 1   
    32   19   20 1   
    33   20   21 ar  
    34   20   26 ar  
    35   21   22 ar  
    36   21   43 1   
    37   22   23 ar  
    38   22   44 1   
    39   23   24 1   
    40   23   25 ar  
    41   25   26 ar  
    42   25   45 1   
    43   26   27 1   
    44   28   29 1   
    45   28   33 1   
    46   28   46 1   
    47   29   30 1   
    48   29   47 1   
    49   29   48 1   
    50   30   31 1   
    51   30   49 1   
    52   30   50 1   
    53   31   32 1   
    54   31   51 1   
    55   32   33 1   
    56   32   52 1   
    57   32   53 1   
    58   33   54 1   
    59   33   55 1   
@<TRIPOS>SUBSTRUCTURE
     1 358         1 TEMP              0 ****  ****    0 ROOT
