@<TRIPOS>MOLECULE
358
   55    51     1     0     0
SMALL
bcc


@<TRIPOS>ATOM
      1 CL1        -0.6020   -2.7780    2.7400 cl        1 358      0.013000
      2 C1          1.1400   -2.8420    2.6760 c2        1 358     -0.042000
      3 C2          1.8790   -2.7720    3.8490 c2        1 358     -0.126000
      4 C3          3.2630   -2.7290    3.7950 c1        1 358     -0.106000
      5 C4          3.9130   -2.7560    2.5660 c1        1 358     -0.127000
      6 C5          3.1750   -2.8270    1.3900 c1        1 358     -0.043000
      7 CL2         3.9960   -3.0190   -0.1400 cl        1 358      0.008000
      8 C6          1.7870   -2.8700    1.4450 c2        1 358      0.059000
      9 N1          1.0190   -2.7370    0.2470 n         1 358     -0.250000
     10 C7          0.3230   -3.8450   -0.2250 c2        1 358      0.322000
     11 O1          0.5450   -4.9380    0.2400 o         1 358     -0.326000
     12 C8         -0.3900   -3.7250   -1.5130 c3        1 358     -0.173000
     13 C9         -1.2580   -2.6210   -1.5490 c3        1 358     -0.122000
     14 C10        -0.7520   -1.3140   -0.8740 c2        1 358     -0.094000
     15 C11         0.4700   -1.3740   -0.1090 c2        1 358      0.092000
     16 C12         1.0630   -0.1920    0.3560 c1        1 358     -0.152000
     17 C13         0.4650    1.0580    0.0740 c1        1 358     -0.038000
     18 C14        -0.7260    1.1180   -0.6720 c1        1 358     -0.128000
     19 C15        -1.3370   -0.0900   -1.1500 c1        1 358     -0.014000
     20 C16        -2.6030   -0.0480   -1.7160 c1        1 358     -0.090000
     21 C17        -2.7480    0.1870   -3.0700 c1        1 358     -0.128500
     22 C18        -4.0080    0.1460   -3.6520 c1        1 358     -0.128500
     23 C19        -5.1230   -0.1320   -2.8750 c1        1 358      0.121000
     24 F1         -6.3230   -0.2810   -3.4580 f         1 358     -0.098000
     25 C20        -4.9800   -0.3680   -1.5160 c1        1 358     -0.211000
     26 C21        -3.7220   -0.3270   -0.9360 c1        1 358      0.133000
     27 F2         -3.5870   -0.5190    0.3830 f         1 358     -0.091000
     28 C22         1.1810    2.3920    0.5160 c3        1 358     -0.069000
     29 C23         1.5880    3.1420   -0.7120 c3        1 358     -0.151500
     30 C24         2.1250    4.5420   -0.3930 c3        1 358     -0.074000
     31 N2          1.2030    5.3200    0.4690 n3        1 358     -0.299000
     32 C25         0.8010    4.5920    1.6830 c3        1 358     -0.074000
     33 C26         0.2540    3.1810    1.3720 c3        1 358     -0.151500
     34 H2          1.4220   -2.7530    4.7150 ha        1 358      0.154000
     35 H3          3.7830   -2.6790    4.6220 ha        1 358      0.146000
     36 H4          4.8890   -2.7270    2.5290 ha        1 358      0.154000
     37 H81         0.2140   -3.6480   -2.2780 hc        1 358      0.122000
     38 H82        -0.8660   -4.5640   -1.6840 hc        1 358      0.122000
     39 H91        -2.0960   -2.8870   -1.0890 hc        1 358      0.105500
     40 H92        -1.4310   -2.4170   -2.4910 hc        1 358      0.105500
     41 H12         1.9140   -0.2330    0.8860 ha        1 358      0.145000
     42 H14        -1.1280    1.9650   -0.8620 ha        1 358      0.146000
     43 H17        -1.9650    0.3790   -3.6180 ha        1 358      0.153000
     44 H18        -4.1110    0.3140   -4.6070 ha        1 358      0.153000
     45 H20        -5.7700   -0.5650   -0.9660 ha        1 358      0.167000
     46 H22         1.9960    2.1630    1.0440 hc        1 358      0.092000
     47 H231        2.3150    2.6100   -1.2020 hc        1 358      0.092000
     48 H232        0.8080    3.2290   -1.3030 hc        1 358      0.092000
     49 H241        2.9800    4.4570    0.0580 h1        1 358      0.067250
     50 H242        2.2620    5.0510   -1.2710 h1        1 358      0.067250
     51 HN2         1.6090    6.1280    0.7110 hn        1 358      0.158000
     52 H251        0.0770    5.1300    2.1710 h1        1 358      0.067250
     53 H252        1.5710    4.5060    2.2610 h1        1 358      0.067250
     54 H261        0.1110    2.6980    2.2250 hc        1 358      0.092000
     55 H262       -0.6160    3.2690    0.9050 hc        1 358      0.092000
@<TRIPOS>BOND
     1    1    2 1   
     2    2    3 1   
     3    2    8 1   
     4    3    4 1   
     5    3   34 1   
     6    4   35 1   
     7    5    6 1   
     8    5   36 1   
     9    6    8 1   
    10    8    9 1   
    11    9   10 1   
    12    9   15 1   
    13   10   11 1   
    14   10   12 1   
    15   12   13 1   
    16   12   37 1   
    17   12   38 1   
    18   13   14 1   
    19   13   39 1   
    20   13   40 1   
    21   14   15 1   
    22   14   19 1   
    23   15   16 1   
    24   16   41 1   
    25   17   18 1   
    26   17   28 1   
    27   18   42 1   
    28   20   26 1   
    29   21   22 1   
    30   21   43 1   
    31   22   44 1   
    32   23   24 1   
    33   23   25 1   
    34   25   45 1   
    35   26   27 1   
    36   28   29 1   
    37   28   33 1   
    38   28   46 1   
    39   29   30 1   
    40   29   47 1   
    41   29   48 1   
    42   30   31 1   
    43   30   49 1   
    44   30   50 1   
    45   31   32 1   
    46   31   51 1   
    47   32   33 1   
    48   32   52 1   
    49   32   53 1   
    50   33   54 1   
    51   33   55 1   
@<TRIPOS>SUBSTRUCTURE
     1 358         1 TEMP              0 ****  ****    0 ROOT
