@<TRIPOS>MOLECULE
358
   55    59     1     0     0
SMALL
bcc


@<TRIPOS>ATOM
      1 CL1         0.0980    0.1960    0.0520 cl        1 358     -0.067900
      2 C1          1.7930    0.0980    0.0290 ca        1 358      0.035900
      3 C2          2.4790    0.1100    1.2460 ca        1 358     -0.126500
      4 C3          3.8690    0.0250    1.2650 ca        1 358     -0.106000
      5 C4          4.5820   -0.0680    0.0730 ca        1 358     -0.126500
      6 C5          3.9050   -0.0760   -1.1490 ca        1 358      0.035900
      7 CL2         4.8140   -0.1900   -2.5790 cl        1 358     -0.067900
      8 C6          2.4930    0.0060   -1.1970 ca        1 358      0.052600
      9 N1          1.7980   -0.0310   -2.4380 n         1 358     -0.302200
     10 C7          1.4740   -1.2710   -3.0160 c         1 358      0.715500
     11 O1          1.7750   -2.3320   -2.4470 o         1 358     -0.601500
     12 C8          0.7820   -1.2540   -4.3600 c3        1 358     -0.142400
     13 C9         -0.1710   -0.0920   -4.5110 c3        1 358     -0.038100
     14 C10         0.4470    1.1910   -4.0820 ca        1 358     -0.096300
     15 C11         1.4150    1.1880   -3.0450 ca        1 358      0.086600
     16 C12         1.9880    2.4080   -2.6300 ca        1 358     -0.152000
     17 C13         1.6070    3.6110   -3.2250 ca        1 358     -0.046300
     18 C14         0.6520    3.6070   -4.2440 ca        1 358     -0.133000
     19 C15         0.0700    2.4070   -4.6670 cp        1 358     -0.013000
     20 C16        -0.9210    2.4630   -5.7470 cp        1 358     -0.088000
     21 C17        -0.5170    2.8700   -7.0250 ca        1 358     -0.072000
     22 C18        -1.4170    2.9620   -8.0790 ca        1 358     -0.182000
     23 C19        -2.7720    2.6460   -7.8600 ca        1 358      0.155900
     24 F1         -3.6580    2.7340   -8.8800 f         1 358     -0.132900
     25 C20        -3.2120    2.2420   -6.5910 ca        1 358     -0.212000
     26 C21        -2.2840    2.1520   -5.5380 ca        1 358      0.164900
     27 F2         -2.7300    1.7630   -4.3200 f         1 358     -0.127900
     28 C22         2.2290    4.8910   -2.7630 c3        1 358     -0.022400
     29 C23         2.9970    5.5690   -3.8920 c3        1 358     -0.072400
     30 C24         3.5920    6.8950   -3.4200 c3        1 358      0.162800
     31 N2          2.6100    7.7820   -2.8270 n3        1 358     -0.821200
     32 C25         1.8200    7.1640   -1.7800 c3        1 358      0.162800
     33 C26         1.1790    5.8450   -2.2070 c3        1 358     -0.072400
     34 H2          1.9180    0.1780    2.1910 ha        1 358      0.154000
     35 H3          4.4050    0.0280    2.2260 ha        1 358      0.145000
     36 H4          5.6810   -0.1400    0.0910 ha        1 358      0.154000
     37 H81         0.2320   -2.2250   -4.4780 hc        1 358      0.083200
     38 H82         1.5810   -1.2120   -5.1490 hc        1 358      0.083200
     39 H91        -1.0950   -0.2660   -3.8910 hc        1 358      0.067700
     40 H92        -0.5030   -0.0280   -5.5820 hc        1 358      0.067700
     41 H12         2.7440    2.4180   -1.8280 ha        1 358      0.145000
     42 H14         0.3470    4.5540   -4.7160 ha        1 358      0.144000
     43 H17         0.5430    3.1230   -7.1920 ha        1 358      0.151000
     44 H18        -1.0860    3.2800   -9.0780 ha        1 358      0.156000
     45 H20        -4.2700    2.0010   -6.4180 ha        1 358      0.167000
     46 H22         2.9620    4.6630   -1.9350 hc        1 358      0.052700
     47 H231        2.3120    5.7470   -4.7610 hc        1 358      0.052200
     48 H232        3.8300    4.9060   -4.2400 hc        1 358      0.052200
     49 H241        4.4390    6.6640   -2.7080 h1        1 358      0.027950
     50 H242        4.0320    7.4320   -4.3080 h1        1 358      0.027950
     51 HN2         3.0630    8.6030   -2.4730 hn        1 358      0.362800
     52 H251        2.4300    6.9710   -0.8470 h1        1 358      0.027950
     53 H252        1.0050    7.8920   -1.5050 h1        1 358      0.027950
     54 H261        0.3940    6.0380   -2.9840 hc        1 358      0.052200
     55 H262        0.6770    5.3850   -1.3180 hc        1 358      0.052200
@<TRIPOS>BOND
     1    1    2 1   
     2    2    3 ar  
     3    2    8 ar  
     4    3    4 ar  
     5    3   34 1   
     6    4    5 ar  
     7    4   35 1   
     8    5    6 ar  
     9    5   36 1   
    10    6    7 1   
    11    6    8 ar  
    12    8    9 1   
    13    9   10 1   
    14    9   15 1   
    15   10   11 2   
    16   10   12 1   
    17   12   13 1   
    18   12   37 1   
    19   12   38 1   
    20   13   14 1   
    21   13   39 1   
    22   13   40 1   
    23   14   15 ar  
    24   14   19 ar  
    25   15   16 ar  
    26   16   17 ar  
    27   16   41 1   
    28   17   18 ar  
    29   17   28 1   
    30   18   19 ar  
    31   18   42 1   
    32   19   20 1   
    33   20   21 ar  
    34   20   26 ar  
    35   21   22 ar  
    36   21   43 1   
    37   22   23 ar  
    38   22   44 1   
    39   23   24 1   
    40   23   25 ar  
    41   25   26 ar  
    42   25   45 1   
    43   26   27 1   
    44   28   29 1   
    45   28   33 1   
    46   28   46 1   
    47   29   30 1   
    48   29   47 1   
    49   29   48 1   
    50   30   31 1   
    51   30   49 1   
    52   30   50 1   
    53   31   32 1   
    54   31   51 1   
    55   32   33 1   
    56   32   52 1   
    57   32   53 1   
    58   33   54 1   
    59   33   55 1   
@<TRIPOS>SUBSTRUCTURE
     1 358         1 TEMP              0 ****  ****    0 ROOT
