@<TRIPOS>MOLECULE
35A
   65    60     1     0     0
SMALL
bcc


@<TRIPOS>ATOM
      1 C          -1.9000    0.0780    1.1380 c1        1 35A     -0.058500
      2 C1         -0.4320    0.1940    1.1340 c2        1 35A     -0.148500
      3 C2          3.1030   -0.4750   -5.3610 c1        1 35A     -0.129000
      4 C3          1.7180   -0.1770   -5.4370 c1        1 35A     -0.167500
      5 O          -1.7310   -0.3810   -1.3200 os        1 35A     -0.269000
      6 C4         -2.6750   -0.0100   -0.2390 c2        1 35A      0.017000
      7 C5          1.0420    0.3290   -4.3090 c1        1 35A     -0.058500
      8 C6         -0.4580    0.7910   -4.4360 c2        1 35A     -0.122000
      9 C7         -1.3730   -0.2300   -3.7530 c3        1 35A      0.058000
     10 C8          3.8040   -0.2660   -4.1580 c1        1 35A     -0.129000
     11 C9          3.1450    0.2280   -3.0520 c1        1 35A     -0.013500
     12 C10         1.7290    0.5330   -3.1290 c2        1 35A     -0.148500
     13 C11         2.4760   -0.6030    1.6290 c3        1 35A     -0.160000
     14 C12         3.4230    0.1890    0.7500 c3        1 35A     -0.099000
     15 C13         3.5740   -0.5190   -0.6150 c3        1 35A     -0.160000
     16 C14         3.9550    0.5320   -1.7120 c3        1 35A     -0.119000
     17 C15         0.1720    0.2890    2.5260 c1        1 35A     -0.013500
     18 C16         1.7500    0.3980    2.6870 c3        1 35A     -0.119000
     19 N          -0.6150    0.2650    3.6420 n1        1 35A     -0.217000
     20 C17        -2.6150    0.0620    2.3230 c1        1 35A     -0.167500
     21 C18        -1.9710    0.1550    3.5580 c1        1 35A      0.140000
     22 N19        -2.7570    0.1590    4.7670 n3        1 35A     -0.752000
     23 S          -3.3790   -1.2660    5.3590 s4        1 35A      2.032800
     24 C20        -3.1730   -1.3380    7.1300 c2        1 35A     -0.934000
     25 O21        -4.7610   -1.4270    4.9870 o         1 35A     -0.533400
     26 O22        -2.7820   -2.4030    4.7160 o         1 35A     -0.533400
     27 C23        -3.0870    1.4130    5.4070 c3        1 35A     -0.083000
     28 C24         2.8760    1.5620    0.5400 c3        1 35A     -0.218000
     29 C25        -2.0360    0.4130   -2.5280 c2        1 35A      0.314000
     30 O26        -2.1300    1.6210   -2.4520 o         1 35A     -0.358000
     31 C27        -2.4610   -0.6860   -4.7420 c3        1 35A     -0.251000
     32 N28        -0.6210   -1.3330   -3.3500 n3        1 35A     -0.344000
     33 H1          0.0970    0.2160    0.3230 ha        1 35A      0.163500
     34 H2          3.5720   -0.8260   -6.1450 ha        1 35A      0.130500
     35 H3          1.2320   -0.3220   -6.2740 ha        1 35A      0.137000
     36 H41        -3.0770    0.8570   -0.4420 h4        1 35A      0.114500
     37 H42        -3.3790   -0.6870   -0.1740 h4        1 35A      0.114500
     38 H61        -0.6990    0.8610   -5.3870 ha        1 35A      0.104500
     39 H62        -0.5670    1.6630   -4.0080 ha        1 35A      0.104500
     40 H8          4.7600   -0.4720   -4.1060 ha        1 35A      0.130500
     41 H10         1.2630    0.8830   -2.3480 ha        1 35A      0.163500
     42 H111        1.7990   -1.0340    1.0720 hc        1 35A      0.089250
     43 H112        2.9830   -1.2900    2.1210 hc        1 35A      0.089250
     44 H12         4.3000    0.2500    1.1860 hc        1 35A      0.081000
     45 H131        2.7300   -0.9480   -0.8550 hc        1 35A      0.089250
     46 H132        4.2820   -1.2000   -0.5550 hc        1 35A      0.089250
     47 H141        3.7340    1.4270   -1.3950 hc        1 35A      0.097250
     48 H142        4.9210    0.4780   -1.8950 hc        1 35A      0.097250
     49 H161        2.0340    1.3210    2.5120 hc        1 35A      0.097250
     50 H162        2.0030    0.1470    3.6030 hc        1 35A      0.097250
     51 H17        -3.5900   -0.0170    2.2950 ha        1 35A      0.137000
     52 H201       -3.2710   -2.2690    7.4350 ha        1 35A      0.161000
     53 H202       -2.2830   -1.0080    7.3700 ha        1 35A      0.161000
     54 H203       -3.8540   -0.7820    7.5600 ha        1 35A      0.161000
     55 H231       -3.7050    1.2490    6.1510 h1        1 35A      0.095000
     56 H232       -2.2670    1.8320    5.7480 h1        1 35A      0.095000
     57 H233       -3.5140    2.0140    4.7510 h1        1 35A      0.095000
     58 H241        3.5950    2.1590    0.2420 hc        1 35A      0.079333
     59 H242        2.5020    1.8960    1.3790 hc        1 35A      0.079333
     60 H243        2.1710    1.5330   -0.1420 hc        1 35A      0.079333
     61 H271       -2.9990    0.0880   -5.0170 hc        1 35A      0.091333
     62 H272       -3.0400   -1.3510   -4.3080 hc        1 35A      0.091333
     63 H273       -2.0370   -1.0870   -5.5330 hc        1 35A      0.091333
     64 H281       -1.1130   -1.8430   -2.7730 hn        1 35A      0.169500
     65 H282       -0.3940   -1.8360   -4.0880 hn        1 35A      0.169500
@<TRIPOS>BOND
     1    1    2 1   
     2    1   20 1   
     3    2   17 1   
     4    2   33 1   
     5    3   10 1   
     6    3   34 1   
     7    4    7 1   
     8    4   35 1   
     9    5    6 1   
    10    5   29 1   
    11    6   36 1   
    12    6   37 1   
    13    7   12 1   
    14    8    9 1   
    15    8   38 1   
    16    8   39 1   
    17    9   29 1   
    18    9   31 1   
    19    9   32 1   
    20   10   40 1   
    21   11   12 1   
    22   11   16 1   
    23   12   41 1   
    24   13   14 1   
    25   13   18 1   
    26   13   42 1   
    27   13   43 1   
    28   14   15 1   
    29   14   28 1   
    30   14   44 1   
    31   15   16 1   
    32   15   45 1   
    33   15   46 1   
    34   16   47 1   
    35   16   48 1   
    36   17   18 1   
    37   18   49 1   
    38   18   50 1   
    39   19   21 1   
    40   20   51 1   
    41   21   22 1   
    42   22   23 1   
    43   22   27 1   
    44   23   25 1   
    45   23   26 1   
    46   24   52 1   
    47   24   53 1   
    48   24   54 1   
    49   27   55 1   
    50   27   56 1   
    51   27   57 1   
    52   28   58 1   
    53   28   59 1   
    54   28   60 1   
    55   29   30 1   
    56   31   61 1   
    57   31   62 1   
    58   31   63 1   
    59   32   64 1   
    60   32   65 1   
@<TRIPOS>SUBSTRUCTURE
     1 35A         1 TEMP              0 ****  ****    0 ROOT
