@<TRIPOS>MOLECULE
35A
   65    67     1     0     0
SMALL
bcc


@<TRIPOS>ATOM
      1 C          -1.2220    1.5130    0.7440 ca        1 35A     -0.043300
      2 C1         -0.8270    0.1820    0.8650 ca        1 35A     -0.259300
      3 C2          6.6470   -1.0690   -1.0040 ca        1 35A     -0.132000
      4 C3          6.1920    0.2380   -0.8420 ca        1 35A     -0.135000
      5 O           0.8240    2.6460    0.1120 os        1 35A     -0.430900
      6 C4         -0.2610    2.6180    1.0490 c3        1 35A      0.174700
      7 C5          4.9470    0.4760   -0.2470 ca        1 35A     -0.088300
      8 C6          4.4750    1.8690   -0.0170 c3        1 35A     -0.036100
      9 C7          3.0930    2.2310   -0.6260 c3        1 35A      0.166200
     10 C8          5.8690   -2.1480   -0.5840 ca        1 35A     -0.126000
     11 C9          4.6200   -1.9240    0.0060 ca        1 35A     -0.076300
     12 C10         4.1740   -0.6090    0.1750 ca        1 35A     -0.103000
     13 C11         0.0060   -2.4860   -0.0900 c3        1 35A     -0.083400
     14 C12         1.1830   -2.9900    0.7470 c3        1 35A     -0.059700
     15 C13         2.3920   -3.0270   -0.1920 c3        1 35A     -0.079400
     16 C14         3.7670   -3.0650    0.4520 c3        1 35A     -0.035100
     17 C15        -1.7550   -0.8430    0.5720 ca        1 35A      0.464600
     18 C16        -1.3020   -2.2790    0.6510 c3        1 35A     -0.132700
     19 N          -3.0310   -0.5840    0.2190 nb        1 35A     -0.743000
     20 C17        -2.5330    1.8060    0.3610 ca        1 35A     -0.265300
     21 C18        -3.4220    0.7250    0.1120 ca        1 35A      0.661200
     22 N19        -4.7640    0.9430   -0.2700 nh        1 35A     -0.767200
     23 S          -5.6990   -0.2590   -0.9380 s6        1 35A      1.460900
     24 C20        -5.9100   -1.3910    0.3080 c3        1 35A     -0.355300
     25 O21        -6.9700    0.2960   -1.2240 o         1 35A     -0.645800
     26 O22        -5.0590   -0.8670   -2.0260 o         1 35A     -0.645800
     27 C23        -5.2820    2.2720   -0.1070 c3        1 35A      0.193100
     28 C24         1.4160   -2.1730    1.9970 c3        1 35A     -0.100100
     29 C25         2.0070    2.0480    0.4540 c         1 35A      0.643100
     30 O26         2.0860    1.4700    1.5370 o         1 35A     -0.547000
     31 C27         3.1290    3.7380   -0.9510 c3        1 35A     -0.133100
     32 N28         2.7270    1.3910   -1.7540 n3        1 35A     -0.911800
     33 H1          0.2010   -0.0640    1.1760 ha        1 35A      0.172000
     34 H3          6.8150    1.0800   -1.1770 ha        1 35A      0.126000
     35 H41        -0.7440    3.6250    0.9110 h1        1 35A      0.075200
     36 H42         0.1260    2.5120    2.0980 h1        1 35A      0.075200
     37 H61         4.4210    2.0470    1.0930 hc        1 35A      0.065200
     38 H62         5.2320    2.5860   -0.4360 hc        1 35A      0.065200
     39 H8          6.2380   -3.1750   -0.7200 ha        1 35A      0.131000
     40 H10         3.1940   -0.4100    0.6380 ha        1 35A      0.155000
     41 H111        0.3100   -1.5280   -0.5940 hc        1 35A      0.052700
     42 H112       -0.1670   -3.2340   -0.9120 hc        1 35A      0.052700
     43 H12         0.9530   -4.0440    1.0730 hc        1 35A      0.041700
     44 H131        2.2790   -3.9310   -0.8500 hc        1 35A      0.047200
     45 H132        2.3420   -2.1320   -0.8720 hc        1 35A      0.047200
     46 H141        4.2700   -4.0340    0.1880 hc        1 35A      0.050700
     47 H142        3.6970   -3.0380    1.5720 hc        1 35A      0.050700
     48 H161       -2.0830   -2.9590    0.2120 hc        1 35A      0.065200
     49 H162       -1.2120   -2.5560    1.7340 hc        1 35A      0.065200
     50 H17        -2.8550    2.8490    0.2460 ha        1 35A      0.148000
     51 H201       -5.7130   -1.0150    1.3410 h1        1 35A      0.121700
     52 H202       -6.9620   -1.7750    0.3140 h1        1 35A      0.121700
     53 H203       -5.2420   -2.2800    0.1740 h1        1 35A      0.121700
     54 H231       -4.8080    2.9770   -0.8430 h1        1 35A      0.055700
     55 H232       -6.3940    2.2660   -0.2830 h1        1 35A      0.055700
     56 H233       -5.0840    2.6520    0.9310 h1        1 35A      0.055700
     57 H241        0.4600   -1.9870    2.5440 hc        1 35A      0.040033
     58 H242        2.0930   -2.7170    2.7000 hc        1 35A      0.040033
     59 H243        1.8740   -1.1820    1.7620 hc        1 35A      0.040033
     60 H271        3.8880    3.9430   -1.7440 hc        1 35A      0.052033
     61 H272        2.1300    4.0870   -1.3070 hc        1 35A      0.052033
     62 H273        3.4010    4.3140   -0.0350 hc        1 35A      0.052033
     63 H281        2.0650    1.8560   -2.3420 hn        1 35A      0.374300
     64 H282        3.5340    1.1110   -2.2720 hn        1 35A      0.374300
     65 H2          7.6280   -1.2520   -1.4670 ha        1 35A      0.130000
@<TRIPOS>BOND
     1    1    2 ar  
     2    1    6 1   
     3    1   20 ar  
     4    2   17 ar  
     5    2   33 1   
     6    3    4 ar  
     7    3   10 ar  
     8    3   65 1   
     9    4    7 ar  
    10    4   34 1   
    11    5    6 1   
    12    5   29 1   
    13    6   35 1   
    14    6   36 1   
    15    7    8 1   
    16    7   12 ar  
    17    8    9 1   
    18    8   37 1   
    19    8   38 1   
    20    9   29 1   
    21    9   31 1   
    22    9   32 1   
    23   10   11 ar  
    24   10   39 1   
    25   11   12 ar  
    26   11   16 1   
    27   12   40 1   
    28   13   14 1   
    29   13   18 1   
    30   13   41 1   
    31   13   42 1   
    32   14   15 1   
    33   14   28 1   
    34   14   43 1   
    35   15   16 1   
    36   15   44 1   
    37   15   45 1   
    38   16   46 1   
    39   16   47 1   
    40   17   18 1   
    41   17   19 ar  
    42   18   48 1   
    43   18   49 1   
    44   19   21 ar  
    45   20   21 ar  
    46   20   50 1   
    47   21   22 1   
    48   22   23 1   
    49   22   27 1   
    50   23   24 1   
    51   23   25 2   
    52   23   26 2   
    53   24   51 1   
    54   24   52 1   
    55   24   53 1   
    56   27   54 1   
    57   27   55 1   
    58   27   56 1   
    59   28   57 1   
    60   28   58 1   
    61   28   59 1   
    62   29   30 2   
    63   31   60 1   
    64   31   61 1   
    65   31   62 1   
    66   32   63 1   
    67   32   64 1   
@<TRIPOS>SUBSTRUCTURE
     1 35A         1 TEMP              0 ****  ****    0 ROOT
