@<TRIPOS>MOLECULE
35A
   67    68     1     0     0
SMALL
bcc


@<TRIPOS>ATOM
      1 C          -0.1990   -0.4960   -0.1310 ca        1 35A     -0.053300
      2 C1          1.1040   -0.0170   -0.1040 ca        1 35A     -0.210300
      3 C2          5.2400   -1.6510   -6.4310 ca        1 35A     -0.105000
      4 C3          3.8710   -1.3990   -6.5350 ca        1 35A     -0.120000
      5 O          -0.0990   -1.3960   -2.4120 os        1 35A     -0.465900
      6 C4         -0.9240   -0.7770   -1.4060 c3        1 35A      0.183700
      7 C5          3.1800   -0.8570   -5.4470 ca        1 35A     -0.172300
      8 C6          1.7360   -0.5210   -5.5690 c3        1 35A     -0.054100
      9 C7          0.8030   -1.3720   -4.6680 c3        1 35A      0.105200
     10 C8          5.9200   -1.3740   -5.2470 ca        1 35A     -0.097000
     11 C9          5.2380   -0.8280   -4.1480 ca        1 35A     -0.056300
     12 C10         3.8710   -0.5640   -4.2640 ca        1 35A     -0.165000
     13 C11         4.0650   -0.1530    0.4330 c3        1 35A     -0.078400
     14 C12         4.8560    0.3790   -0.7640 c3        1 35A     -0.070700
     15 C13         5.2080   -0.8300   -1.6320 c3        1 35A     -0.069400
     16 C14         5.9870   -0.5200   -2.8960 c3        1 35A     -0.051100
     17 C15         1.7150    0.3020    1.1390 ca        1 35A      0.477600
     18 C16         3.1300    0.8230    1.1260 c3        1 35A     -0.141700
     19 N           1.0650    0.1630    2.3100 nb        1 35A     -0.735000
     20 C17        -0.8870   -0.6560    1.0860 ca        1 35A     -0.217300
     21 C18        -0.2170   -0.3090    2.2760 ca        1 35A      0.523200
     22 N19        -0.8500   -0.4600    3.5770 nh        1 35A     -0.906900
     23 S           0.8170   -0.5780    5.2250 s4        1 35A      1.637500
     24 C20         1.4670    0.8910    5.1780 c3        1 35A     -0.525800
     25 O21        -0.1250   -0.7670    6.1820 o         1 35A     -0.414400
     26 O22         1.4980   -1.5990    4.6590 o         1 35A     -0.414400
     27 C23        -1.8140    0.5950    3.8660 c3        1 35A      0.099100
     28 C24         4.1550    1.4740   -1.5350 c3        1 35A     -0.102100
     29 C25         0.4380   -0.6010   -3.3900 c         1 35A      0.605100
     30 O26         0.5370    0.6050   -3.2050 o         1 35A     -0.446000
     31 C27        -0.5160   -1.6280   -5.4080 c3        1 35A     -0.136100
     32 N28         1.4620   -2.6860   -4.3100 n4        1 35A     -0.836600
     33 H1          1.6630    0.1320   -1.0410 ha        1 35A      0.169000
     34 H3          3.3510   -1.6010   -7.4850 ha        1 35A      0.148000
     35 H41        -1.3620    0.1810   -1.8040 h1        1 35A      0.102200
     36 H42        -1.7340   -1.5450   -1.2500 h1        1 35A      0.102200
     37 H61         1.4040   -0.6500   -6.6360 hc        1 35A      0.111200
     38 H62         1.5780    0.5630   -5.3030 hc        1 35A      0.111200
     39 H8          7.0020   -1.5730   -5.1770 ha        1 35A      0.164000
     40 H10         3.3340   -0.0730   -3.4360 ha        1 35A      0.136000
     41 H111        3.4740   -1.0530    0.1070 hc        1 35A      0.049700
     42 H112        4.8090   -0.5300    1.1880 hc        1 35A      0.049700
     43 H12         5.8230    0.8150   -0.3790 hc        1 35A      0.072700
     44 H131        4.2630   -1.3780   -1.8930 hc        1 35A      0.034200
     45 H132        5.8170   -1.5320   -1.0000 hc        1 35A      0.034200
     46 H141        6.2970    0.5620   -2.9200 hc        1 35A      0.077200
     47 H142        6.9420   -1.1150   -2.8870 hc        1 35A      0.077200
     48 H161        3.4960    1.0040    2.1730 hc        1 35A      0.078200
     49 H162        3.1110    1.8240    0.6180 hc        1 35A      0.078200
     50 H17        -1.9190   -1.0360    1.1010 ha        1 35A      0.167000
     51 H201        1.7200    1.3190    6.1970 h1        1 35A      0.194700
     52 H202        0.8280    1.7050    4.7200 h1        1 35A      0.194700
     53 H203        2.4330    0.9660    4.5920 h1        1 35A      0.194700
     54 H231       -1.3150    1.5980    3.7970 h1        1 35A      0.084700
     55 H232       -2.6810    0.5860    3.1520 h1        1 35A      0.084700
     56 H233       -2.2060    0.4350    4.9090 h1        1 35A      0.084700
     57 H241        4.2100    2.4430   -0.9790 hc        1 35A      0.042033
     58 H242        4.6420    1.6400   -2.5280 hc        1 35A      0.042033
     59 H243        3.0800    1.2350   -1.7180 hc        1 35A      0.042033
     60 H271       -0.3430   -2.2030   -6.3510 hc        1 35A      0.092700
     61 H272       -0.9650   -0.6390   -5.6840 hc        1 35A      0.092700
     62 H273       -1.2420   -2.1810   -4.7630 hc        1 35A      0.092700
     63 H281        2.3790   -2.4980   -3.8790 hn        1 35A      0.471467
     64 H282        0.8670   -3.2090   -3.6610 hn        1 35A      0.471467
     65 H191       -1.3150   -1.3590    3.6000 hn        1 35A      0.426800
     66 H283        1.6050   -3.2260   -5.1700 hn        1 35A      0.471467
     67 H2          5.7880   -2.0600   -7.2960 ha        1 35A      0.166000
@<TRIPOS>BOND
     1    1    2 ar  
     2    1    6 1   
     3    1   20 ar  
     4    2   17 ar  
     5    2   33 1   
     6    3    4 ar  
     7    3   10 ar  
     8    3   67 1   
     9    4    7 ar  
    10    4   34 1   
    11    5    6 1   
    12    5   29 1   
    13    6   35 1   
    14    6   36 1   
    15    7    8 1   
    16    7   12 ar  
    17    8    9 1   
    18    8   37 1   
    19    8   38 1   
    20    9   29 1   
    21    9   31 1   
    22    9   32 1   
    23   10   11 ar  
    24   10   39 1   
    25   11   12 ar  
    26   11   16 1   
    27   12   40 1   
    28   13   14 1   
    29   13   18 1   
    30   13   41 1   
    31   13   42 1   
    32   14   15 1   
    33   14   28 1   
    34   14   43 1   
    35   15   16 1   
    36   15   44 1   
    37   15   45 1   
    38   16   46 1   
    39   16   47 1   
    40   17   18 1   
    41   17   19 ar  
    42   18   48 1   
    43   18   49 1   
    44   19   21 ar  
    45   20   21 ar  
    46   20   50 1   
    47   21   22 1   
    48   22   27 1   
    49   22   65 1   
    50   23   24 1   
    51   23   25 1   
    52   23   26 1   
    53   24   51 1   
    54   24   52 1   
    55   24   53 1   
    56   27   54 1   
    57   27   55 1   
    58   27   56 1   
    59   28   57 1   
    60   28   58 1   
    61   28   59 1   
    62   29   30 2   
    63   31   60 1   
    64   31   61 1   
    65   31   62 1   
    66   32   63 1   
    67   32   64 1   
    68   32   66 1   
@<TRIPOS>SUBSTRUCTURE
     1 35A         1 TEMP              0 ****  ****    0 ROOT
