@<TRIPOS>MOLECULE
35A
   66    68     1     0     0
SMALL
bcc


@<TRIPOS>ATOM
      1 C           0.1010    1.2940   -1.0190 ca        1 35A     -0.091300
      2 C1          1.1190    2.1610   -0.6330 ca        1 35A     -0.218300
      3 C2          4.3110   -3.6200   -2.7430 ca        1 35A     -0.119000
      4 C3          3.2310   -3.4370   -3.6030 ca        1 35A     -0.139000
      5 O          -0.7180    0.2060   -2.9770 os        1 35A     -0.457900
      6 C4         -0.6510    1.4800   -2.2960 c3        1 35A      0.181700
      7 C5          2.7950   -2.1410   -3.9130 ca        1 35A     -0.158300
      8 C6          1.6760   -1.9420   -4.8720 c3        1 35A     -0.048100
      9 C7          0.3240   -1.6000   -4.1990 c3        1 35A      0.098200
     10 C8          4.9550   -2.5190   -2.1770 ca        1 35A     -0.105000
     11 C9          4.5260   -1.2210   -2.4760 ca        1 35A     -0.063300
     12 C10         3.4540   -1.0400   -3.3580 ca        1 35A     -0.116000
     13 C11         4.2840    2.2120    1.1250 c3        1 35A     -0.073400
     14 C12         4.9820    1.8180   -0.1710 c3        1 35A     -0.067700
     15 C13         4.3250    0.6030   -0.8080 c3        1 35A     -0.071400
     16 C14         5.1980   -0.0370   -1.8720 c3        1 35A     -0.048100
     17 C15         1.8260    1.8930    0.5680 ca        1 35A      0.451600
     18 C16         2.9150    2.8460    0.9800 c3        1 35A     -0.135700
     19 N           1.5640    0.8230    1.3480 nb        1 35A     -0.664000
     20 C17        -0.2110    0.1990   -0.2060 ca        1 35A     -0.235300
     21 C18         0.5640   -0.0240    0.9600 ca        1 35A      0.622200
     22 N19         0.2970   -1.1850    1.7390 nh        1 35A     -0.793200
     23 S           0.5220   -2.6800    1.1320 s6        1 35A      1.486900
     24 C20         2.1260   -3.0460    1.5060 c3        1 35A     -0.383300
     25 O21        -0.3300   -3.6110    1.7410 o         1 35A     -0.688800
     26 O22         0.4120   -2.6430   -0.2980 o         1 35A     -0.688800
     27 C23         0.0260   -0.9790    3.1390 c3        1 35A      0.196100
     28 C24         5.0680    2.9790   -1.1380 c3        1 35A     -0.094100
     29 C25         0.2890   -0.1060   -3.8450 c         1 35A      0.621100
     30 O26         1.0070    0.7730   -4.3060 o         1 35A     -0.463000
     31 C27        -0.8120   -1.8510   -5.1970 c3        1 35A     -0.130100
     32 N28         0.1300   -2.4300   -2.9540 nz        1 35A     -0.825600
     33 H1          1.3880    3.0330   -1.2460 ha        1 35A      0.164000
     34 H3          2.7460   -4.3100   -4.0640 ha        1 35A      0.134000
     35 H41        -0.1840    2.2550   -2.9580 h1        1 35A      0.102200
     36 H42        -1.7340    1.7200   -2.1060 h1        1 35A      0.102200
     37 H61         1.9200   -1.0930   -5.5710 hc        1 35A      0.099200
     38 H62         1.5340   -2.8650   -5.4980 hc        1 35A      0.099200
     39 H8          5.8120   -2.6730   -1.5020 ha        1 35A      0.152000
     40 H10         3.1380   -0.0180   -3.6280 ha        1 35A      0.156000
     41 H111        4.9400    2.9600    1.6500 hc        1 35A      0.058200
     42 H112        4.2150    1.3120    1.7920 hc        1 35A      0.058200
     43 H12         6.0360    1.5260    0.1130 hc        1 35A      0.057700
     44 H131        3.3440    0.9060   -1.2630 hc        1 35A      0.035700
     45 H132        4.1050   -0.1560   -0.0100 hc        1 35A      0.035700
     46 H141        6.1810   -0.3390   -1.4190 hc        1 35A      0.065200
     47 H142        5.4210    0.7140   -2.6780 hc        1 35A      0.065200
     48 H161        2.6270    3.2960    1.9720 hc        1 35A      0.070200
     49 H162        2.9640    3.6850    0.2350 hc        1 35A      0.070200
     50 H17        -1.0270   -0.4820   -0.4870 ha        1 35A      0.152000
     51 H201        2.3430   -3.0330    2.6060 h1        1 35A      0.131367
     52 H202        2.3930   -4.0800    1.1630 h1        1 35A      0.131367
     53 H203        2.8750   -2.3590    1.0390 h1        1 35A      0.131367
     54 H231        0.9740   -0.7800    3.7080 h1        1 35A      0.067033
     55 H232       -0.4800   -1.8950    3.5500 h1        1 35A      0.067033
     56 H233       -0.6600   -0.1000    3.2730 h1        1 35A      0.067033
     57 H241        5.4060    3.9010   -0.6070 hc        1 35A      0.039033
     58 H242        4.0770    3.1840   -1.6100 hc        1 35A      0.039033
     59 H243        5.8010    2.7540   -1.9510 hc        1 35A      0.039033
     60 H271       -1.7980   -1.5510   -4.7630 hc        1 35A      0.085033
     61 H272       -0.8500   -2.9250   -5.5020 hc        1 35A      0.085033
     62 H273       -0.6230   -1.2320   -6.1100 hc        1 35A      0.085033
     63 H281        1.0130   -2.5000   -2.4190 hn        1 35A      0.475133
     64 H282       -0.1770   -3.3690   -3.2070 hn        1 35A      0.475133
     65 H283       -0.5670   -2.0010   -2.3270 hn        1 35A      0.475133
     66 H2          4.6660   -4.6380   -2.5180 ha        1 35A      0.151000
@<TRIPOS>BOND
     1    1    2 ar  
     2    1    6 1   
     3    1   20 ar  
     4    2   17 ar  
     5    2   33 1   
     6    3    4 ar  
     7    3   10 ar  
     8    3   66 1   
     9    4    7 ar  
    10    4   34 1   
    11    5    6 1   
    12    5   29 1   
    13    6   35 1   
    14    6   36 1   
    15    7    8 1   
    16    7   12 ar  
    17    8    9 1   
    18    8   37 1   
    19    8   38 1   
    20    9   29 1   
    21    9   31 1   
    22    9   32 1   
    23   10   11 ar  
    24   10   39 1   
    25   11   12 ar  
    26   11   16 1   
    27   12   40 1   
    28   13   14 1   
    29   13   18 1   
    30   13   41 1   
    31   13   42 1   
    32   14   15 1   
    33   14   28 1   
    34   14   43 1   
    35   15   16 1   
    36   15   44 1   
    37   15   45 1   
    38   16   46 1   
    39   16   47 1   
    40   17   18 1   
    41   17   19 ar  
    42   18   48 1   
    43   18   49 1   
    44   19   21 ar  
    45   20   21 ar  
    46   20   50 1   
    47   21   22 1   
    48   22   23 1   
    49   22   27 1   
    50   23   24 1   
    51   23   25 2   
    52   23   26 2   
    53   24   51 1   
    54   24   52 1   
    55   24   53 1   
    56   27   54 1   
    57   27   55 1   
    58   27   56 1   
    59   28   57 1   
    60   28   58 1   
    61   28   59 1   
    62   29   30 2   
    63   31   60 1   
    64   31   61 1   
    65   31   62 1   
    66   32   63 1   
    67   32   64 1   
    68   32   65 1   
@<TRIPOS>SUBSTRUCTURE
     1 35A         1 TEMP              0 ****  ****    0 ROOT
