@<TRIPOS>MOLECULE
35B
   52    46     1     0     0
SMALL
bcc


@<TRIPOS>ATOM
      1 C1         -2.3580    2.8880   -3.8860 c3        1 35B     -0.078000
      2 C2         -0.6800    1.9330   -2.3380 c1        1 35B      0.392000
      3 C3          0.9230    0.9130   -0.6880 c1        1 35B      0.024000
      4 C4          2.2190    1.4170   -0.6970 c1        1 35B     -0.173000
      5 C5          2.9490    1.4780    0.4840 c1        1 35B     -0.127000
      6 C6          2.3840    1.0370    1.6740 c1        1 35B     -0.127000
      7 N1         -1.4270    1.8500   -3.5460 n2        1 35B     -0.358000
      8 C7          1.0900    0.5340    1.6830 c1        1 35B      0.073000
      9 O1         -0.7540    2.9310   -1.6440 o         1 35B     -0.430000
     10 C8          0.3590    0.4720    0.5000 c2        1 35B     -0.152000
     11 C9          0.4840    0.3410    2.9180 c1        1 35B     -0.427500
     12 C10         0.4700   -0.8980    3.6790 c1        1 35B     -0.044000
     13 C11        -0.3370   -0.6470    5.0270 c1        1 35B     -0.044000
     14 C12        -0.7850    0.7350    5.0390 c1        1 35B     -0.427500
     15 C13        -1.6840    1.3630    6.0710 c1        1 35B      0.388000
     16 C14         0.6200   -1.7660    6.8940 c3        1 35B     -0.096000
     17 C15         0.2560   -2.6430    8.0850 c2        1 35B      0.338000
     18 C16         0.2540   -0.3660   -2.7610 c3        1 35B      0.059000
     19 C17         0.9180   -0.0050   -4.0700 c3        1 35B     -0.177000
     20 C18         0.8940   -1.1490   -5.0700 c3        1 35B     -0.152500
     21 C19        -0.4950   -1.7180   -5.2640 c3        1 35B     -0.155000
     22 C20        -1.1600   -2.0800   -3.9560 c3        1 35B     -0.152500
     23 C21        -1.1360   -0.9350   -2.9560 c3        1 35B     -0.177000
     24 N2          0.1630    0.8300   -1.9310 n2        1 35B     -0.293000
     25 S1         -0.2940    1.4080    3.7280 ss        1 35B      0.571000
     26 O2         -1.2030    2.1440    6.9300 o         1 35B     -0.549500
     27 O3         -2.9040    1.0590    6.1100 o         1 35B     -0.549500
     28 O4         -0.5210   -1.5890    6.0700 o         1 35B     -0.169000
     29 O5          1.0700   -2.7760    9.0420 o         1 35B     -0.584000
     30 O6         -0.8240   -3.2850    8.0850 o         1 35B     -0.584000
     31 BR1         1.2030   -2.5650    3.1110 br        1 35B      0.041000
     32 H1         -1.8800    3.7430   -3.9690 h1        1 35B      0.075667
     33 H1A        -2.7930    2.6710   -4.7380 h1        1 35B      0.075667
     34 H4          2.6220    1.7090   -1.5350 ha        1 35B      0.128000
     35 H5          3.8490    1.8670    0.4840 ha        1 35B      0.136500
     36 H6          2.7990    0.9550    2.5590 ha        1 35B      0.136500
     37 H8         -0.5410    0.0950    0.5020 ha        1 35B      0.151000
     38 H14         1.3320   -2.1970    6.3780 h1        1 35B      0.093500
     39 H14A        0.9320   -0.8920    7.2140 h1        1 35B      0.093500
     40 H16         0.8030   -1.0290   -2.3020 h1        1 35B      0.111000
     41 H17         1.8450    0.2410   -3.8950 hc        1 35B      0.097000
     42 H17A        0.4560    0.7620   -4.4570 hc        1 35B      0.097000
     43 H18         1.2260   -0.8240   -5.9290 hc        1 35B      0.077750
     44 H18A        1.4860   -1.8620   -4.7500 hc        1 35B      0.077750
     45 H19        -0.4330   -2.5230   -5.8210 hc        1 35B      0.072000
     46 H19A       -1.0450   -1.0570   -5.7250 hc        1 35B      0.072000
     47 H20        -0.6950   -2.8500   -3.5670 hc        1 35B      0.077750
     48 H20A       -2.0880   -2.3270   -4.1320 hc        1 35B      0.077750
     49 H21        -1.7260   -0.2250   -3.2750 hc        1 35B      0.097000
     50 H21A       -1.4670   -1.2600   -2.0980 hc        1 35B      0.097000
     51 H1B        -3.0400    2.9610   -3.1800 h1        1 35B      0.075667
     52 HN         -1.3370    1.1300   -4.0850 hn        1 35B      0.221000
@<TRIPOS>BOND
     1    1    7 1   
     2    1   32 1   
     3    1   33 1   
     4    1   51 1   
     5    2    9 1   
     6    2   24 1   
     7    3    4 1   
     8    3   10 1   
     9    4   34 1   
    10    5    6 1   
    11    5   35 1   
    12    6   36 1   
    13    7   52 1   
    14    8   10 1   
    15   10   37 1   
    16   11   12 1   
    17   11   25 1   
    18   12   13 1   
    19   13   14 1   
    20   14   25 1   
    21   15   26 1   
    22   15   27 1   
    23   16   17 1   
    24   16   28 1   
    25   16   38 1   
    26   16   39 1   
    27   17   29 1   
    28   17   30 1   
    29   18   19 1   
    30   18   23 1   
    31   18   24 1   
    32   18   40 1   
    33   19   20 1   
    34   19   41 1   
    35   19   42 1   
    36   20   21 1   
    37   20   43 1   
    38   20   44 1   
    39   21   22 1   
    40   21   45 1   
    41   21   46 1   
    42   22   23 1   
    43   22   47 1   
    44   22   48 1   
    45   23   49 1   
    46   23   50 1   
@<TRIPOS>SUBSTRUCTURE
     1 35B         1 TEMP              0 ****  ****    0 ROOT
