@<TRIPOS>MOLECULE
35B
   53    55     1     0     0
SMALL
bcc


@<TRIPOS>ATOM
      1 C1          0.3630    2.6390    1.3550 c3        1 35B      0.078300
      2 C2          2.2800    1.3610    0.5410 c         1 35B      0.767100
      3 C3          4.0310    0.6520    2.1230 ca        1 35B      0.023600
      4 C4          5.3010    1.2320    2.3170 ca        1 35B     -0.145000
      5 C5          5.8780    1.2420    3.5850 ca        1 35B     -0.127000
      6 C6          5.2120    0.6920    4.6760 ca        1 35B     -0.091000
      7 N1          1.6990    2.1610    1.5390 ns        1 35B     -0.552900
      8 C7          3.9460    0.1130    4.4980 ca        1 35B      0.003000
      9 O1          1.7860    1.3470   -0.6160 o         1 35B     -0.655100
     10 C8          3.3610    0.0860    3.2280 ca        1 35B     -0.139000
     11 C9          3.2500   -0.4470    5.6400 cc        1 35B     -0.054100
     12 C10         3.6960   -1.4870    6.4440 cd        1 35B     -0.024900
     13 C11         2.7940   -1.7010    7.5500 cd        1 35B      0.256100
     14 C12         1.6650   -0.8830    7.4620 cc        1 35B     -0.272700
     15 C13         0.4970   -0.8900    8.3230 c         1 35B      0.698700
     16 C14         3.4170   -2.3870    9.7600 c3        1 35B      0.002400
     17 C15         4.5110   -1.3020    9.8330 c         1 35B      0.902600
     18 C16         4.2330    0.0390   -0.2510 c3        1 35B      0.135700
     19 C17         4.7270    1.0840   -1.2670 c3        1 35B     -0.098900
     20 C18         5.6420    0.4350   -2.2840 c3        1 35B     -0.073400
     21 C19         4.9500   -0.7040   -3.0030 c3        1 35B     -0.078400
     22 C20         4.4150   -1.7230   -2.0180 c3        1 35B     -0.073400
     23 C21         3.4930   -1.0820   -1.0030 c3        1 35B     -0.098900
     24 N2          3.4340    0.6020    0.8330 n         1 35B     -0.392000
     25 S1          1.8010    0.1840    6.1740 ss        1 35B      0.103200
     26 O2          0.2360   -1.9640    9.1260 oh        1 35B     -0.593100
     27 O3         -0.3810   -0.0200    8.3960 o         1 35B     -0.541000
     28 O4          2.9530   -2.7280    8.4360 os        1 35B     -0.364900
     29 O5          4.4920   -0.3830    8.9690 o         1 35B     -0.816300
     30 O6          5.3300   -1.4010   10.7840 o         1 35B     -0.816300
     31 Br1         5.2230   -2.4830    6.1330 br        1 35B     -0.043100
     32 H1         -0.4030    1.8880    1.6920 h1        1 35B      0.042367
     33 H1A         0.1830    2.8690    0.2710 h1        1 35B      0.042367
     34 H4          5.8440    1.6740    1.4680 ha        1 35B      0.133000
     35 H5          6.8720    1.6930    3.7250 ha        1 35B      0.135000
     36 H6          5.6660    0.7040    5.6820 ha        1 35B      0.177000
     37 H8          2.3790   -0.3940    3.0960 ha        1 35B      0.144000
     38 H14         3.8050   -3.3690   10.1330 h1        1 35B      0.045200
     39 H14A        2.5280   -2.0570   10.3580 h1        1 35B      0.045200
     40 H16         5.1460   -0.4240    0.2370 h1        1 35B      0.058700
     41 H17         5.2800    1.9020   -0.7370 hc        1 35B      0.059700
     42 H17A        3.8430    1.5440   -1.7840 hc        1 35B      0.059700
     43 H18         6.5630    0.0510   -1.7720 hc        1 35B      0.035950
     44 H18A        5.9690    1.2060   -3.0300 hc        1 35B      0.035950
     45 H19         5.6700   -1.1990   -3.7050 hc        1 35B      0.038200
     46 H19A        4.1030   -0.2980   -3.6160 hc        1 35B      0.038200
     47 H20         3.8550   -2.5210   -2.5720 hc        1 35B      0.035950
     48 H20A        5.2720   -2.2200   -1.4910 hc        1 35B      0.035950
     49 H21         3.1400   -1.8580   -0.2770 hc        1 35B      0.059700
     50 H21A        2.5920   -0.6530   -1.5170 hc        1 35B      0.059700
     51 H1B         0.2390    3.5760    1.9610 h1        1 35B      0.042367
     52 HN          1.9840    2.0210    2.4830 hn        1 35B      0.310500
     53 H12         0.9330   -2.6330    9.0390 ho        1 35B      0.447000
@<TRIPOS>BOND
     1    1    7 1   
     2    1   32 1   
     3    1   33 1   
     4    1   51 1   
     5    2    7 1   
     6    2    9 2   
     7    2   24 1   
     8    3    4 ar  
     9    3   10 ar  
    10    3   24 1   
    11    4    5 ar  
    12    4   34 1   
    13    5    6 ar  
    14    5   35 1   
    15    6    8 ar  
    16    6   36 1   
    17    7   52 1   
    18    8   10 ar  
    19    8   11 1   
    20   10   37 1   
    21   11   12 2   
    22   11   25 1   
    23   12   13 1   
    24   12   31 1   
    25   13   14 2   
    26   13   28 1   
    27   14   15 1   
    28   14   25 1   
    29   15   26 1   
    30   15   27 2   
    31   16   17 1   
    32   16   28 1   
    33   16   38 1   
    34   16   39 1   
    35   17   29 1   
    36   17   30 1   
    37   18   19 1   
    38   18   23 1   
    39   18   24 1   
    40   18   40 1   
    41   19   20 1   
    42   19   41 1   
    43   19   42 1   
    44   20   21 1   
    45   20   43 1   
    46   20   44 1   
    47   21   22 1   
    48   21   45 1   
    49   21   46 1   
    50   22   23 1   
    51   22   47 1   
    52   22   48 1   
    53   23   49 1   
    54   23   50 1   
    55   26   53 1   
@<TRIPOS>SUBSTRUCTURE
     1 35B         1 TEMP              0 ****  ****    0 ROOT
