@<TRIPOS>MOLECULE
35B
   53    55     1     0     0
SMALL
bcc


@<TRIPOS>ATOM
      1 C1          0.2630    2.5180    1.3510 c3        1 35B      0.078300
      2 C2          2.2270    1.3120    0.5390 c         1 35B      0.767100
      3 C3          4.0020    0.6710    2.1230 ca        1 35B      0.023600
      4 C4          5.2500    1.2970    2.3170 ca        1 35B     -0.145000
      5 C5          5.8250    1.3300    3.5850 ca        1 35B     -0.127000
      6 C6          5.1790    0.7560    4.6760 ca        1 35B     -0.091000
      7 N1          1.6160    2.0900    1.5360 n         1 35B     -0.552900
      8 C7          3.9360    0.1300    4.4980 ca        1 35B      0.003000
      9 O1          1.7350    1.2790   -0.6180 o         1 35B     -0.655100
     10 C8          3.3530    0.0810    3.2280 ca        1 35B     -0.139000
     11 C9          3.2610   -0.4550    5.6400 cc        1 35B     -0.054100
     12 C10         3.7450   -1.4770    6.4450 cd        1 35B     -0.024900
     13 C11         2.8510   -1.7230    7.5520 cd        1 35B      0.256100
     14 C12         1.6920   -0.9470    7.4630 cc        1 35B     -0.272700
     15 C13         0.5250   -0.9970    8.3230 c         1 35B      0.698700
     16 C14         3.4980   -2.3830    9.7620 c3        1 35B      0.002400
     17 C15         4.5510   -1.2580    9.8340 c         1 35B      0.902600
     18 C16         4.2280    0.0640   -0.2500 c3        1 35B      0.135700
     19 C17         4.6840    1.1260   -1.2670 c3        1 35B     -0.098900
     20 C18         5.6230    0.5120   -2.2830 c3        1 35B     -0.073400
     21 C19         4.9750   -0.6540   -3.0020 c3        1 35B     -0.078400
     22 C20         4.4780   -1.6910   -2.0170 c3        1 35B     -0.073400
     23 C21         3.5320   -1.0850   -1.0030 c3        1 35B     -0.098900
     24 N2          3.4080    0.5970    0.8330 n         1 35B     -0.392000
     25 S1          1.7890    0.1230    6.1730 ss        1 35B      0.103200
     26 O2          0.3040   -2.0790    9.1270 oh        1 35B     -0.593100
     27 O3         -0.3850   -0.1600    8.3940 o         1 35B     -0.541000
     28 O4          3.0470   -2.7420    8.4380 os        1 35B     -0.364900
     29 O5          4.4980   -0.3420    8.9700 o         1 35B     -0.816300
     30 O6          5.3740   -1.3270   10.7850 o         1 35B     -0.816300
     31 BR1         5.3070   -2.4150    6.1350 br        1 35B     -0.043100
     32 H1          0.1030    3.4500    1.9560 h1        1 35B      0.042367
     33 H1A         0.0750    2.7400    0.2670 h1        1 35B      0.042367
     34 H4          5.7760    1.7580    1.4680 ha        1 35B      0.133000
     35 H5          6.8010    1.8180    3.7260 ha        1 35B      0.135000
     36 H6          5.6320    0.7860    5.6820 ha        1 35B      0.177000
     37 H8          2.3900   -0.4370    3.0950 ha        1 35B      0.144000
     38 H14         2.5980   -2.0860   10.3590 h1        1 35B      0.045200
     39 H14A        3.9230   -3.3500   10.1360 h1        1 35B      0.045200
     40 H16         5.1570   -0.3640    0.2380 h1        1 35B      0.058700
     41 H17         3.7830    1.5520   -1.7850 hc        1 35B      0.059700
     42 H17A        5.2050    1.9640   -0.7370 hc        1 35B      0.059700
     43 H18         5.9210    1.2940   -3.0290 hc        1 35B      0.035950
     44 H18A        6.5570    0.1620   -1.7710 hc        1 35B      0.035950
     45 H19         4.1140   -0.2800   -3.6160 hc        1 35B      0.038200
     46 H19A        5.7130   -1.1210   -3.7040 hc        1 35B      0.038200
     47 H20         5.3520   -2.1550   -1.4890 hc        1 35B      0.035950
     48 H20A        3.9480   -2.5100   -2.5710 hc        1 35B      0.035950
     49 H21         3.2070   -1.8730   -0.2770 hc        1 35B      0.059700
     50 H21A        2.6160   -0.6900   -1.5170 hc        1 35B      0.059700
     51 H1B        -0.4750    1.7390    1.6880 h1        1 35B      0.042367
     52 HN          1.9050    1.9620    2.4800 hn        1 35B      0.310500
     53 H12         1.0250   -2.7210    9.0410 ho        1 35B      0.447000
@<TRIPOS>BOND
     1    1    7 1   
     2    1   32 1   
     3    1   33 1   
     4    1   51 1   
     5    2    7 1   
     6    2    9 2   
     7    2   24 1   
     8    3    4 ar  
     9    3   10 ar  
    10    3   24 1   
    11    4    5 ar  
    12    4   34 1   
    13    5    6 ar  
    14    5   35 1   
    15    6    8 ar  
    16    6   36 1   
    17    7   52 1   
    18    8   10 ar  
    19    8   11 1   
    20   10   37 1   
    21   11   12 2   
    22   11   25 1   
    23   12   13 1   
    24   12   31 1   
    25   13   14 2   
    26   13   28 1   
    27   14   15 1   
    28   14   25 1   
    29   15   26 1   
    30   15   27 2   
    31   16   17 1   
    32   16   28 1   
    33   16   38 1   
    34   16   39 1   
    35   17   29 1   
    36   17   30 1   
    37   18   19 1   
    38   18   23 1   
    39   18   24 1   
    40   18   40 1   
    41   19   20 1   
    42   19   41 1   
    43   19   42 1   
    44   20   21 1   
    45   20   43 1   
    46   20   44 1   
    47   21   22 1   
    48   21   45 1   
    49   21   46 1   
    50   22   23 1   
    51   22   47 1   
    52   22   48 1   
    53   23   49 1   
    54   23   50 1   
    55   26   53 1   
@<TRIPOS>SUBSTRUCTURE
     1 35B         1 TEMP              0 ****  ****    0 ROOT
