@<TRIPOS>MOLECULE
35B
   52    54     1     0     0
SMALL
bcc


@<TRIPOS>ATOM
      1 C1         -0.2250    1.3930    1.5500 c3        1 35B      0.073300
      2 C2          1.9560    0.7680    0.6540 c         1 35B      0.766100
      3 C3          3.9430    0.8390    2.1150 ca        1 35B      0.026600
      4 C4          4.9980    1.7730    2.1070 ca        1 35B     -0.174000
      5 C5          5.6210    2.1230    3.3020 ca        1 35B     -0.128000
      6 C6          5.2080    1.5730    4.5110 ca        1 35B     -0.121000
      7 N1          1.2050    1.4520    1.6280 n         1 35B     -0.540900
      8 C7          4.1610    0.6370    4.5420 ca        1 35B      0.074000
      9 O1          1.4290    0.4800   -0.4540 o         1 35B     -0.673100
     10 C8          3.5410    0.2670    3.3380 ca        1 35B     -0.160000
     11 C9          3.6920    0.0840    5.7870 cc        1 35B     -0.165100
     12 C10         4.4460   -0.4780    6.8150 cd        1 35B     -0.039900
     13 C11         3.6150   -0.8840    7.9280 cd        1 35B      0.140100
     14 C12         2.2750   -0.6140    7.6830 cc        1 35B     -0.164700
     15 C13         1.0340   -0.8050    8.5350 c         1 35B      0.939200
     16 C14         3.4030   -1.9190   10.0690 c3        1 35B      0.005400
     17 C15         4.3450   -2.6210   11.0790 c         1 35B      0.918600
     18 C16         4.1580   -0.0380   -0.1730 c3        1 35B      0.140700
     19 C17         4.2640    0.9240   -1.3700 c3        1 35B     -0.100400
     20 C18         5.2580    0.3980   -2.3830 c3        1 35B     -0.071900
     21 C19         4.8770   -0.9880   -2.8630 c3        1 35B     -0.076400
     22 C20         4.7250   -1.9430   -1.6970 c3        1 35B     -0.071900
     23 C21         3.7270   -1.4250   -0.6830 c3        1 35B     -0.100400
     24 N2          3.3060    0.4530    0.9020 n         1 35B     -0.392000
     25 S1          2.0640    0.0700    6.1720 ss        1 35B      0.021200
     26 O2          0.1730   -1.6350    8.1270 o         1 35B     -0.815300
     27 O3          0.8900   -0.0710    9.5480 o         1 35B     -0.815300
     28 O4          4.2400   -1.4490    8.9970 os        1 35B     -0.285900
     29 O5          4.9500   -1.9130   11.9320 o         1 35B     -0.849800
     30 O6          4.4200   -3.8820   11.0370 o         1 35B     -0.849800
     31 BR1         6.2860   -0.7160    6.7340 br        1 35B     -0.098100
     32 H1         -0.6360    0.4450    1.9940 h1        1 35B      0.041367
     33 H1A        -0.6400    2.2660    2.1190 h1        1 35B      0.041367
     34 H4          5.3340    2.2250    1.1620 ha        1 35B      0.120000
     35 H5          6.4470    2.8490    3.2880 ha        1 35B      0.118000
     36 H6          5.6960    1.8680    5.4530 ha        1 35B      0.155000
     37 H8          2.7410   -0.4900    3.3680 ha        1 35B      0.151000
     38 H14         2.8860   -1.0430   10.5370 h1        1 35B      0.054700
     39 H14A        2.6470   -2.6350    9.6590 h1        1 35B      0.054700
     40 H16         5.1960   -0.1470    0.2720 h1        1 35B      0.060700
     41 H17         4.5930    1.9360   -1.0160 hc        1 35B      0.060700
     42 H17A        3.2530    1.0360   -1.8440 hc        1 35B      0.060700
     43 H18         6.2820    0.3660   -1.9260 hc        1 35B      0.032700
     44 H18A        5.3020    1.0990   -3.2570 hc        1 35B      0.032700
     45 H19         3.9090   -0.9330   -3.4280 hc        1 35B      0.032700
     46 H19A        5.6600   -1.3710   -3.5670 hc        1 35B      0.032700
     47 H20         5.7220   -2.0920   -1.2040 hc        1 35B      0.032700
     48 H20A        4.3840   -2.9420   -2.0730 hc        1 35B      0.032700
     49 H21         2.7080   -1.3510   -1.1470 hc        1 35B      0.060700
     50 H21A        3.6630   -2.1420    0.1760 hc        1 35B      0.060700
     51 H1B        -0.5510    1.4550    0.4780 h1        1 35B      0.041367
     52 HN          1.5750    1.4920    2.5550 hn        1 35B      0.314500
@<TRIPOS>BOND
     1    1    7 1   
     2    1   32 1   
     3    1   33 1   
     4    1   51 1   
     5    2    7 1   
     6    2    9 2   
     7    2   24 1   
     8    3    4 ar  
     9    3   10 ar  
    10    3   24 1   
    11    4    5 ar  
    12    4   34 1   
    13    5    6 ar  
    14    5   35 1   
    15    6    8 ar  
    16    6   36 1   
    17    7   52 1   
    18    8   10 ar  
    19    8   11 1   
    20   10   37 1   
    21   11   12 2   
    22   11   25 1   
    23   12   13 1   
    24   12   31 1   
    25   13   14 2   
    26   13   28 1   
    27   14   15 1   
    28   14   25 1   
    29   15   26 1   
    30   15   27 1   
    31   16   17 1   
    32   16   28 1   
    33   16   38 1   
    34   16   39 1   
    35   17   29 1   
    36   17   30 1   
    37   18   19 1   
    38   18   23 1   
    39   18   24 1   
    40   18   40 1   
    41   19   20 1   
    42   19   41 1   
    43   19   42 1   
    44   20   21 1   
    45   20   43 1   
    46   20   44 1   
    47   21   22 1   
    48   21   45 1   
    49   21   46 1   
    50   22   23 1   
    51   22   47 1   
    52   22   48 1   
    53   23   49 1   
    54   23   50 1   
@<TRIPOS>SUBSTRUCTURE
     1 35B         1 TEMP              0 ****  ****    0 ROOT
