@<TRIPOS>MOLECULE
35B
   52    54     1     0     0
SMALL
bcc


@<TRIPOS>ATOM
      1 C1          3.6850    4.0550    0.0450 c3        1 35B      0.073300
      2 C2          4.4980    1.7560    0.0930 c         1 35B      0.766100
      3 C3          3.0510   -0.0330    0.9850 ca        1 35B      0.026600
      4 C4          3.1670   -0.7160    2.2120 ca        1 35B     -0.174000
      5 C5          2.0190   -1.1380    2.8780 ca        1 35B     -0.128000
      6 C6          0.7550   -0.8820    2.3580 ca        1 35B     -0.121000
      7 N1          3.6120    2.7310    0.5880 n         1 35B     -0.540900
      8 C7          0.6170   -0.2060    1.1340 ca        1 35B      0.074000
      9 O1          5.5660    2.1110   -0.4730 o         1 35B     -0.673100
     10 C8          1.7710    0.2060    0.4490 ca        1 35B     -0.160000
     11 C9         -0.6830    0.1020    0.5940 cc        1 35B     -0.165100
     12 C10        -1.7700   -0.7530    0.4340 cd        1 35B     -0.039900
     13 C11        -2.9220   -0.0590   -0.1040 cd        1 35B      0.140100
     14 C12        -2.6440    1.2830   -0.3270 cc        1 35B     -0.164700
     15 C13        -3.5100    2.4230   -0.8290 c         1 35B      0.939200
     16 C14        -5.1680   -0.1160   -0.9090 c3        1 35B      0.005400
     17 C15        -6.2550   -1.1960   -1.1390 c         1 35B      0.918600
     18 C16         5.2210   -0.6200   -0.0130 c3        1 35B      0.140700
     19 C17         6.5220   -0.4490    0.7930 c3        1 35B     -0.100400
     20 C18         7.4650   -1.6010    0.5230 c3        1 35B     -0.071900
     21 C19         7.7820   -1.7230   -0.9530 c3        1 35B     -0.076400
     22 C20         6.5130   -1.8500   -1.7710 c3        1 35B     -0.071900
     23 C21         5.5680   -0.6970   -1.5110 c3        1 35B     -0.100400
     24 N2          4.2130    0.3900    0.2780 n         1 35B     -0.392000
     25 S1         -1.0630    1.6470    0.0770 ss        1 35B      0.021200
     26 O2         -3.2000    2.9410   -1.9400 o         1 35B     -0.815300
     27 O3         -4.4300    2.8450   -0.0800 o         1 35B     -0.815300
     28 O4         -4.0500   -0.7920   -0.3060 os        1 35B     -0.285900
     29 O5         -7.0210   -1.4960   -0.1810 o         1 35B     -0.849800
     30 O6         -6.3610   -1.6890   -2.2990 o         1 35B     -0.849800
     31 BR1        -1.7210   -2.5690    0.8190 br        1 35B     -0.098100
     32 H1          3.2220    4.7600    0.7850 h1        1 35B      0.041367
     33 H1A         4.7580    4.3400   -0.1220 h1        1 35B      0.041367
     34 H4          4.1570   -0.9210    2.6440 ha        1 35B      0.120000
     35 H5          2.1160   -1.6750    3.8330 ha        1 35B      0.118000
     36 H6         -0.1470   -1.2060    2.9000 ha        1 35B      0.155000
     37 H8          1.6550    0.7090   -0.5250 ha        1 35B      0.151000
     38 H14        -4.8440    0.3410   -1.8770 h1        1 35B      0.054700
     39 H14A       -5.5300    0.6820   -0.2110 h1        1 35B      0.054700
     40 H16         4.7660   -1.6160    0.2810 h1        1 35B      0.060700
     41 H17         7.0080    0.5210    0.5070 hc        1 35B      0.060700
     42 H17A        6.2880   -0.4080    1.8890 hc        1 35B      0.060700
     43 H18         8.4150   -1.4460    1.0990 hc        1 35B      0.032700
     44 H18A        7.0050   -2.5580    0.8860 hc        1 35B      0.032700
     45 H19         8.3510   -0.8160   -1.2880 hc        1 35B      0.032700
     46 H19A        8.4350   -2.6170   -1.1270 hc        1 35B      0.032700
     47 H20         6.7710   -1.8770   -2.8620 hc        1 35B      0.032700
     48 H20A        6.0040   -2.8190   -1.5230 hc        1 35B      0.032700
     49 H21         4.6310   -0.8400   -2.1100 hc        1 35B      0.060700
     50 H21A        6.0400    0.2690   -1.8330 hc        1 35B      0.060700
     51 H1B         3.1350    4.1460   -0.9310 h1        1 35B      0.041367
     52 HN          2.6960    2.4330    0.8500 hn        1 35B      0.314500
@<TRIPOS>BOND
     1    1    7 1   
     2    1   32 1   
     3    1   33 1   
     4    1   51 1   
     5    2    7 1   
     6    2    9 2   
     7    2   24 1   
     8    3    4 ar  
     9    3   10 ar  
    10    3   24 1   
    11    4    5 ar  
    12    4   34 1   
    13    5    6 ar  
    14    5   35 1   
    15    6    8 ar  
    16    6   36 1   
    17    7   52 1   
    18    8   10 ar  
    19    8   11 1   
    20   10   37 1   
    21   11   12 2   
    22   11   25 1   
    23   12   13 1   
    24   12   31 1   
    25   13   14 2   
    26   13   28 1   
    27   14   15 1   
    28   14   25 1   
    29   15   26 1   
    30   15   27 1   
    31   16   17 1   
    32   16   28 1   
    33   16   38 1   
    34   16   39 1   
    35   17   29 1   
    36   17   30 1   
    37   18   19 1   
    38   18   23 1   
    39   18   24 1   
    40   18   40 1   
    41   19   20 1   
    42   19   41 1   
    43   19   42 1   
    44   20   21 1   
    45   20   43 1   
    46   20   44 1   
    47   21   22 1   
    48   21   45 1   
    49   21   46 1   
    50   22   23 1   
    51   22   47 1   
    52   22   48 1   
    53   23   49 1   
    54   23   50 1   
@<TRIPOS>SUBSTRUCTURE
     1 35B         1 TEMP              0 ****  ****    0 ROOT
