@<TRIPOS>MOLECULE
35C
   14    11     1     0     0
SMALL
bcc


@<TRIPOS>ATOM
      1 C1         -0.7140   -0.0010   -0.8240 c1        1 35C      0.083000
      2 C2          0.6720   -0.0010   -0.8240 c2        1 35C      0.005000
      3 C3          1.3650   -0.0010    0.3760 c1        1 35C     -0.099000
      4 C4          0.6720   -0.0010    1.5770 c2        1 35C     -0.121000
      5 C5         -0.7140   -0.0010    1.5770 c1        1 35C     -0.053000
      6 C6         -1.4070   -0.0010    0.3760 c1        1 35C     -0.129000
      7 O7         -1.4180   -0.0240   -2.0420 o         1 35C     -0.241000
      8 O8          1.3750    0.0230   -2.0420 oh        1 35C     -0.262000
      9 CL9         3.1080    0.0060    0.3760 cl        1 35C     -0.002000
     10 CL10       -1.5860    0.0220    3.0870 cl        1 35C      0.001000
     11 H4          1.1600   -0.0010    2.4220 ha        1 35C      0.165000
     12 H6         -2.3830   -0.0010    0.3770 ha        1 35C      0.172000
     13 HO7        -1.7760    0.7740   -2.1920 ho        1 35C      0.242000
     14 HO8         1.6460   -0.7970   -2.2440 ho        1 35C      0.241000
@<TRIPOS>BOND
     1    1    2 1   
     2    1    6 1   
     3    2    3 1   
     4    2    8 1   
     5    3    4 1   
     6    4    5 1   
     7    4   11 1   
     8    5   10 1   
     9    6   12 1   
    10    7   13 1   
    11    8   14 1   
@<TRIPOS>SUBSTRUCTURE
     1 35C         1 TEMP              0 ****  ****    0 ROOT
