@<TRIPOS>MOLECULE
35C
   14    14     1     0     0
SMALL
bcc


@<TRIPOS>ATOM
      1 C1         -0.1510   -0.0890    0.0730 ca        1 35C      0.128100
      2 C2          1.2560    0.0160   -0.0200 ca        1 35C      0.050100
      3 C3          2.0200    0.1130    1.1510 ca        1 35C     -0.020600
      4 C4          1.3950    0.1050    2.4020 ca        1 35C     -0.121000
      5 C5          0.0050    0.0000    2.4750 ca        1 35C      0.025400
      6 C6         -0.7800   -0.0970    1.3230 ca        1 35C     -0.129000
      7 O7         -0.9570   -0.1870   -1.0330 oh        1 35C     -0.487100
      8 O8          1.7670    0.0140   -1.2980 oh        1 35C     -0.508100
      9 CL9         3.7140    0.2400    1.0710 cl        1 35C     -0.080400
     10 CL10       -0.7510   -0.0090    3.9970 cl        1 35C     -0.077400
     11 H4          1.9990    0.1810    3.3200 ha        1 35C      0.165000
     12 H6         -1.8760   -0.1800    1.3760 ha        1 35C      0.172000
     13 HO7        -0.3930   -0.1700   -1.8230 ho        1 35C      0.443000
     14 HO8         2.7320    0.0900   -1.2420 ho        1 35C      0.442000
@<TRIPOS>BOND
     1    1    2 ar  
     2    1    6 ar  
     3    1    7 1   
     4    2    3 ar  
     5    2    8 1   
     6    3    4 ar  
     7    3    9 1   
     8    4    5 ar  
     9    4   11 1   
    10    5    6 ar  
    11    5   10 1   
    12    6   12 1   
    13    7   13 1   
    14    8   14 1   
@<TRIPOS>SUBSTRUCTURE
     1 35C         1 TEMP              0 ****  ****    0 ROOT
