@<TRIPOS>MOLECULE
35C
   14    14     1     0     0
SMALL
bcc


@<TRIPOS>ATOM
      1 C1          0.0110   -1.6900   -0.0740 ca        1 35C      0.128100
      2 C2         -1.0930   -0.8080    0.0120 ca        1 35C      0.050100
      3 C3         -0.8680    0.5720    0.0930 ca        1 35C     -0.020600
      4 C4          0.4370    1.0750    0.0900 ca        1 35C     -0.121000
      5 C5          1.5140    0.1900    0.0050 ca        1 35C      0.025400
      6 C6          1.3170   -1.1910   -0.0770 ca        1 35C     -0.129000
      7 O7         -0.1400   -3.0520   -0.1560 oh        1 35C     -0.487100
      8 O8         -2.3310   -1.4090    0.0070 oh        1 35C     -0.508100
      9 CL9        -2.1740    1.6570    0.1970 cl        1 35C     -0.080400
     10 CL10        3.0980    0.8040    0.0010 cl        1 35C     -0.077400
     11 H4          0.6090    2.1600    0.1540 ha        1 35C      0.165000
     12 H6          2.1630   -1.8920   -0.1440 ha        1 35C      0.172000
     13 HO7        -1.0890   -3.2550   -0.1430 ho        1 35C      0.443000
     14 HO8        -3.0070   -0.7160    0.0700 ho        1 35C      0.442000
@<TRIPOS>BOND
     1    1    2 ar  
     2    1    6 ar  
     3    1    7 1   
     4    2    3 ar  
     5    2    8 1   
     6    3    4 ar  
     7    3    9 1   
     8    4    5 ar  
     9    4   11 1   
    10    5    6 ar  
    11    5   10 1   
    12    6   12 1   
    13    7   13 1   
    14    8   14 1   
@<TRIPOS>SUBSTRUCTURE
     1 35C         1 TEMP              0 ****  ****    0 ROOT
