@<TRIPOS>MOLECULE
35D
   61    66     1     0     0
SMALL
bcc


@<TRIPOS>ATOM
      1 C01         0.0360   -0.3840    0.3270 c3        1 35D     -0.170100
      2 C02         1.5450   -0.3710    0.2970 c         1 35D      0.654100
      3 O03         2.1930   -0.6350    1.3310 o         1 35D     -0.607100
      4 N04         2.2100    0.0110   -0.8670 n         1 35D     -0.461800
      5 C05         3.6520   -0.1150   -0.9420 c3        1 35D      0.082500
      6 C06         4.1330   -1.2190   -1.8880 c3        1 35D     -0.098400
      7 C07         3.4900   -1.0580   -3.2600 c3        1 35D     -0.108000
      8 C08         1.9730   -1.0360   -3.1230 c3        1 35D     -0.098400
      9 C09         1.5500    0.0700   -2.1510 c3        1 35D      0.082500
     10 C10         3.9390   -2.1480   -4.1980 ca        1 35D      0.334300
     11 N11         3.6350   -3.4130   -3.9680 nb        1 35D     -0.614000
     12 C12         4.0760   -4.3720   -4.8670 ca        1 35D      0.263300
     13 C13         3.7680   -5.7480   -4.6490 ca        1 35D     -0.146300
     14 C14         4.2020   -6.7010   -5.5380 ca        1 35D     -0.134000
     15 C15         4.9550   -6.3390   -6.6770 ca        1 35D     -0.112000
     16 C16         5.2740   -5.0270   -6.9250 ca        1 35D     -0.171300
     17 C17         4.8440   -4.0050   -6.0260 ca        1 35D      0.323300
     18 N18         5.1660   -2.6810   -6.2730 nb        1 35D     -0.708000
     19 C19         4.7300   -1.7910   -5.3880 ca        1 35D      0.529300
     20 O20         4.9850   -0.4430   -5.5240 os        1 35D     -0.430100
     21 C21         5.7780   -0.0300   -6.6320 cy        1 35D      0.104100
     22 C22         5.0200    0.0510   -7.9900 cy        1 35D      0.155800
     23 N23         5.0490    1.5280   -7.9080 nh        1 35D     -0.706300
     24 C24         5.8210    1.5290   -6.6450 cy        1 35D      0.155800
     25 C25         5.5180    2.3170   -8.9850 ca        1 35D      0.619200
     26 C26         5.9180    3.6820   -8.6910 ca        1 35D     -0.261300
     27 C27         6.2570    4.5110   -9.7240 ca        1 35D     -0.063000
     28 C28         6.2180    4.0320  -11.0640 ca        1 35D     -0.174300
     29 C29         6.5550    4.8500  -12.1700 ca        1 35D     -0.101000
     30 C30         6.5050    4.3470  -13.4470 ca        1 35D     -0.139000
     31 C31         6.1140    3.0050  -13.6680 ca        1 35D     -0.116000
     32 C32         5.7800    2.1840  -12.6210 ca        1 35D     -0.177300
     33 C33         5.8220    2.6760  -11.2740 ca        1 35D      0.430600
     34 N34         5.4890    1.8310  -10.2390 nb        1 35D     -0.713000
     35 H1         -0.2940   -0.5880    1.3750 hc        1 35D      0.065700
     36 H2         -0.3580   -1.1900   -0.3380 hc        1 35D      0.065700
     37 H3         -0.3780    0.6010    0.0040 hc        1 35D      0.065700
     38 H4          4.0650   -0.3090    0.0880 h1        1 35D      0.058700
     39 H5          4.0540    0.8750   -1.3050 h1        1 35D      0.058700
     40 H6          3.8840   -2.2240   -1.4600 hc        1 35D      0.061200
     41 H7          5.2470   -1.1480   -1.9770 hc        1 35D      0.061200
     42 H8          3.8170   -0.0670   -3.6880 hc        1 35D      0.078700
     43 H9          1.6030   -2.0280   -2.7580 hc        1 35D      0.061200
     44 H10         1.5020   -0.8350   -4.1190 hc        1 35D      0.061200
     45 H11         0.4330    0.0330   -2.0270 h1        1 35D      0.058700
     46 H12         1.8090    1.0690   -2.6120 h1        1 35D      0.058700
     47 H13         3.1810   -6.0310   -3.7600 ha        1 35D      0.152000
     48 H14         3.9650   -7.7630   -5.3700 ha        1 35D      0.139000
     49 H15         5.2860   -7.1280   -7.3700 ha        1 35D      0.139000
     50 H16         5.8610   -4.7460   -7.8130 ha        1 35D      0.152000
     51 H17         6.7590   -0.5540   -6.6460 h1        1 35D      0.087700
     52 H18         5.5690   -0.4130   -8.8430 h1        1 35D      0.079700
     53 H19         3.9690   -0.3220   -7.9590 h1        1 35D      0.079700
     54 H20         5.2410    2.0150   -5.8240 h1        1 35D      0.079700
     55 H21         6.8520    1.9500   -6.7000 h1        1 35D      0.079700
     56 H22         5.9300    4.0310   -7.6490 ha        1 35D      0.145000
     57 H23         6.5610    5.5520   -9.5400 ha        1 35D      0.139000
     58 H24         6.8560    5.8920  -11.9840 ha        1 35D      0.132000
     59 H25         6.7650    4.9780  -14.3100 ha        1 35D      0.134000
     60 H26         6.0800    2.6250  -14.7000 ha        1 35D      0.134000
     61 H27         5.4750    1.1410  -12.7980 ha        1 35D      0.149000
@<TRIPOS>BOND
     1    1    2 1   
     2    1   35 1   
     3    1   36 1   
     4    1   37 1   
     5    2    3 2   
     6    2    4 1   
     7    4    5 1   
     8    4    9 1   
     9    5    6 1   
    10    5   38 1   
    11    5   39 1   
    12    6    7 1   
    13    6   40 1   
    14    6   41 1   
    15    7    8 1   
    16    7   10 1   
    17    7   42 1   
    18    8    9 1   
    19    8   43 1   
    20    8   44 1   
    21    9   45 1   
    22    9   46 1   
    23   10   11 ar  
    24   10   19 ar  
    25   11   12 ar  
    26   12   13 ar  
    27   12   17 ar  
    28   13   14 ar  
    29   13   47 1   
    30   14   15 ar  
    31   14   48 1   
    32   15   16 ar  
    33   15   49 1   
    34   16   17 ar  
    35   16   50 1   
    36   17   18 ar  
    37   18   19 ar  
    38   19   20 1   
    39   20   21 1   
    40   21   22 1   
    41   21   24 1   
    42   21   51 1   
    43   22   23 1   
    44   22   52 1   
    45   22   53 1   
    46   23   24 1   
    47   23   25 1   
    48   24   54 1   
    49   24   55 1   
    50   25   26 ar  
    51   25   34 ar  
    52   26   27 ar  
    53   26   56 1   
    54   27   28 ar  
    55   27   57 1   
    56   28   29 ar  
    57   28   33 ar  
    58   29   30 ar  
    59   29   58 1   
    60   30   31 ar  
    61   30   59 1   
    62   31   32 ar  
    63   31   60 1   
    64   32   33 ar  
    65   32   61 1   
    66   33   34 ar  
@<TRIPOS>SUBSTRUCTURE
     1 35D         1 TEMP              0 ****  ****    0 ROOT
