@<TRIPOS>MOLECULE
35D
   61    66     1     0     0
SMALL
bcc


@<TRIPOS>ATOM
      1 C01         0.0530   -0.3770    0.3410 c3        1 35D     -0.170100
      2 C02         1.5610   -0.3660    0.3050 c         1 35D      0.654100
      3 O03         2.2140   -0.6310    1.3360 o         1 35D     -0.607100
      4 N04         2.2220    0.0150   -0.8630 n         1 35D     -0.461800
      5 C05         3.6630   -0.1130   -0.9440 c3        1 35D      0.082500
      6 C06         4.1390   -1.2180   -1.8910 c3        1 35D     -0.098400
      7 C07         3.4900   -1.0570   -3.2600 c3        1 35D     -0.108000
      8 C08         1.9730   -1.0320   -3.1170 c3        1 35D     -0.098400
      9 C09         1.5560    0.0750   -2.1430 c3        1 35D      0.082500
     10 C10         3.9330   -2.1480   -4.2000 ca        1 35D      0.334300
     11 N11         3.6250   -3.4120   -3.9700 nb        1 35D     -0.614000
     12 C12         4.0610   -4.3720   -4.8700 ca        1 35D      0.263300
     13 C13         3.7490   -5.7470   -4.6520 ca        1 35D     -0.146300
     14 C14         4.1790   -6.7010   -5.5420 ca        1 35D     -0.134000
     15 C15         4.9310   -6.3410   -6.6820 ca        1 35D     -0.112000
     16 C16         5.2550   -5.0290   -6.9300 ca        1 35D     -0.171300
     17 C17         4.8290   -4.0070   -6.0300 ca        1 35D      0.323300
     18 N18         5.1550   -2.6840   -6.2770 nb        1 35D     -0.708000
     19 C19         4.7230   -1.7920   -5.3910 ca        1 35D      0.529300
     20 O20         4.9820   -0.4460   -5.5270 os        1 35D     -0.430100
     21 C21         5.7760   -0.0350   -6.6350 cy        1 35D      0.104100
     22 C22         5.0160    0.0500   -7.9920 cy        1 35D      0.155800
     23 N23         5.0500    1.5270   -7.9090 nh        1 35D     -0.706300
     24 C24         5.8230    1.5240   -6.6470 cy        1 35D      0.155800
     25 C25         5.5200    2.3150   -8.9870 ca        1 35D      0.619200
     26 C26         5.9260    3.6790   -8.6920 ca        1 35D     -0.261300
     27 C27         6.2660    4.5070   -9.7250 ca        1 35D     -0.063000
     28 C28         6.2240    4.0290  -11.0650 ca        1 35D     -0.174300
     29 C29         6.5630    4.8460  -12.1710 ca        1 35D     -0.101000
     30 C30         6.5090    4.3450  -13.4480 ca        1 35D     -0.139000
     31 C31         6.1140    3.0040  -13.6690 ca        1 35D     -0.116000
     32 C32         5.7790    2.1830  -12.6230 ca        1 35D     -0.177300
     33 C33         5.8230    2.6740  -11.2750 ca        1 35D      0.430600
     34 N34         5.4890    1.8300  -10.2400 nb        1 35D     -0.713000
     35 H1         -0.3450   -1.1820   -0.3220 hc        1 35D      0.065700
     36 H2         -0.3620    0.6080    0.0200 hc        1 35D      0.065700
     37 H3         -0.2730   -0.5810    1.3910 hc        1 35D      0.065700
     38 H4          4.0810   -0.3070    0.0850 h1        1 35D      0.058700
     39 H5          4.0650    0.8760   -1.3080 h1        1 35D      0.058700
     40 H6          3.8900   -2.2220   -1.4620 hc        1 35D      0.061200
     41 H7          5.2530   -1.1490   -1.9850 hc        1 35D      0.061200
     42 H8          3.8160   -0.0660   -3.6910 hc        1 35D      0.078700
     43 H9          1.6030   -2.0240   -2.7500 hc        1 35D      0.061200
     44 H10         1.4980   -0.8310   -4.1100 hc        1 35D      0.061200
     45 H11         0.4400    0.0390   -2.0140 h1        1 35D      0.058700
     46 H12         1.8150    1.0730   -2.6060 h1        1 35D      0.058700
     47 H13         3.1630   -6.0280   -3.7620 ha        1 35D      0.152000
     48 H14         3.9380   -7.7620   -5.3740 ha        1 35D      0.139000
     49 H15         5.2590   -7.1310   -7.3760 ha        1 35D      0.139000
     50 H16         5.8410   -4.7500   -7.8190 ha        1 35D      0.152000
     51 H17         6.7540   -0.5620   -6.6510 h1        1 35D      0.087700
     52 H18         5.5620   -0.4150   -8.8470 h1        1 35D      0.079700
     53 H19         3.9630   -0.3190   -7.9610 h1        1 35D      0.079700
     54 H20         6.8560    1.9410   -6.7030 h1        1 35D      0.079700
     55 H21         5.2460    2.0120   -5.8250 h1        1 35D      0.079700
     56 H22         5.9390    4.0270   -7.6500 ha        1 35D      0.145000
     57 H23         6.5740    5.5480   -9.5400 ha        1 35D      0.139000
     58 H24         6.8670    5.8880  -11.9850 ha        1 35D      0.132000
     59 H25         6.7710    4.9750  -14.3110 ha        1 35D      0.134000
     60 H26         6.0780    2.6250  -14.7020 ha        1 35D      0.134000
     61 H27         5.4700    1.1410  -12.8000 ha        1 35D      0.149000
@<TRIPOS>BOND
     1    1    2 1   
     2    1   35 1   
     3    1   36 1   
     4    1   37 1   
     5    2    3 2   
     6    2    4 1   
     7    4    5 1   
     8    4    9 1   
     9    5    6 1   
    10    5   38 1   
    11    5   39 1   
    12    6    7 1   
    13    6   40 1   
    14    6   41 1   
    15    7    8 1   
    16    7   10 1   
    17    7   42 1   
    18    8    9 1   
    19    8   43 1   
    20    8   44 1   
    21    9   45 1   
    22    9   46 1   
    23   10   11 ar  
    24   10   19 ar  
    25   11   12 ar  
    26   12   13 ar  
    27   12   17 ar  
    28   13   14 ar  
    29   13   47 1   
    30   14   15 ar  
    31   14   48 1   
    32   15   16 ar  
    33   15   49 1   
    34   16   17 ar  
    35   16   50 1   
    36   17   18 ar  
    37   18   19 ar  
    38   19   20 1   
    39   20   21 1   
    40   21   22 1   
    41   21   24 1   
    42   21   51 1   
    43   22   23 1   
    44   22   52 1   
    45   22   53 1   
    46   23   24 1   
    47   23   25 1   
    48   24   54 1   
    49   24   55 1   
    50   25   26 ar  
    51   25   34 ar  
    52   26   27 ar  
    53   26   56 1   
    54   27   28 ar  
    55   27   57 1   
    56   28   29 ar  
    57   28   33 ar  
    58   29   30 ar  
    59   29   58 1   
    60   30   31 ar  
    61   30   59 1   
    62   31   32 ar  
    63   31   60 1   
    64   32   33 ar  
    65   32   61 1   
    66   33   34 ar  
@<TRIPOS>SUBSTRUCTURE
     1 35D         1 TEMP              0 ****  ****    0 ROOT
