@<TRIPOS>MOLECULE
35E
   54    58     1     0     0
SMALL
bcc


@<TRIPOS>ATOM
      1 O01         0.9200    0.0880   -0.8570 oh        1 35E     -0.601800
      2 C02         2.2810   -0.1550   -0.5350 c3        1 35E      0.134400
      3 C03         2.4260   -0.0020    0.9750 c3        1 35E     -0.070700
      4 C04         3.8950    0.0740    1.3530 c3        1 35E     -0.076400
      5 C05         4.0630    0.1650    2.8700 c3        1 35E      0.182800
      6 N06         3.3900   -0.9270    3.5680 nh        1 35E     -0.713300
      7 C07         1.9780   -1.0520    3.2120 c3        1 35E      0.182800
      8 C08         1.7660   -1.1600    1.7040 c3        1 35E     -0.076400
      9 C09         3.6510   -1.0240    4.9620 ca        1 35E      0.509900
     10 N10         4.1970    0.0120    5.6600 nb        1 35E     -0.666000
     11 C11         4.5180   -0.1920    6.9520 ca        1 35E      0.274900
     12 C12         4.2930   -1.4220    7.6030 ca        1 35E      0.285900
     13 N13         3.7370   -2.4710    6.9620 nb        1 35E     -0.694000
     14 C14         3.4180   -2.2870    5.6610 ca        1 35E      0.506300
     15 O15         2.8190   -3.2960    4.9340 os        1 35E     -0.415100
     16 C16         2.7620   -4.5860    5.5270 cy        1 35E      0.106100
     17 C17         1.9670   -5.5300    4.5730 cy        1 35E      0.156300
     18 N18         0.8920   -5.6300    5.5830 nh        1 35E     -0.708300
     19 C19         1.6140   -4.7830    6.5610 cy        1 35E      0.156300
     20 C20         0.3950   -6.8840    6.0070 ca        1 35E      0.622200
     21 C21        -0.3270   -6.9270    7.2680 ca        1 35E     -0.259300
     22 C22        -0.9280   -8.0940    7.6470 ca        1 35E     -0.064000
     23 C23        -0.8400   -9.2450    6.8140 ca        1 35E     -0.175300
     24 C24        -1.4480  -10.4770    7.1590 ca        1 35E     -0.100000
     25 C25        -1.3370  -11.5650    6.3280 ca        1 35E     -0.141000
     26 C26        -0.6130  -11.4610    5.1170 ca        1 35E     -0.116000
     27 C27        -0.0110  -10.2840    4.7500 ca        1 35E     -0.178300
     28 C28        -0.1060   -9.1280    5.5950 ca        1 35E      0.431600
     29 N29         0.5120   -7.9600    5.2090 nb        1 35E     -0.718000
     30 H1          0.8360   -0.0460   -1.8080 ho        1 35E      0.400000
     31 H2          2.5760   -1.1890   -0.8590 h1        1 35E      0.023200
     32 H3          2.9340    0.5920   -1.0640 h1        1 35E      0.023200
     33 H4          1.9150    0.9540    1.2810 hc        1 35E      0.066700
     34 H5          4.3660    0.9830    0.8970 hc        1 35E      0.054200
     35 H6          4.4330   -0.8270    0.9600 hc        1 35E      0.054200
     36 H7          3.6790    1.1710    3.2100 h1        1 35E      0.049450
     37 H8          5.1610    0.1100    3.1140 h1        1 35E      0.049450
     38 H9          1.3920   -0.1660    3.5960 h1        1 35E      0.049450
     39 H10         1.5690   -1.9800    3.7010 h1        1 35E      0.049450
     40 H11         0.6640   -1.1530    1.4970 hc        1 35E      0.054200
     41 H12         2.1820   -2.1310    1.3300 hc        1 35E      0.054200
     42 H13         4.9660    0.6680    7.4780 h4        1 35E      0.034100
     43 H14         4.5610   -1.5830    8.6600 h4        1 35E      0.034100
     44 H15         3.7690   -4.9330    5.8460 h1        1 35E      0.083700
     45 H16         1.5890   -5.0390    3.6440 h1        1 35E      0.078950
     46 H17         2.5100   -6.4730    4.3240 h1        1 35E      0.078950
     47 H18         1.0330   -3.8580    6.7910 h1        1 35E      0.078950
     48 H19         1.9300   -5.2880    7.5040 h1        1 35E      0.078950
     49 H20        -0.3880   -6.0220    7.8870 ha        1 35E      0.146000
     50 H21        -1.4870   -8.1630    8.5930 ha        1 35E      0.138000
     51 H22        -2.0100  -10.5430    8.1040 ha        1 35E      0.132000
     52 H23        -1.8080  -12.5230    6.5900 ha        1 35E      0.133000
     53 H24        -0.5380  -12.3460    4.4660 ha        1 35E      0.133000
     54 H25         0.5500  -10.2090    3.8050 ha        1 35E      0.148000
@<TRIPOS>BOND
     1    1    2 1   
     2    1   30 1   
     3    2    3 1   
     4    2   31 1   
     5    2   32 1   
     6    3    4 1   
     7    3    8 1   
     8    3   33 1   
     9    4    5 1   
    10    4   34 1   
    11    4   35 1   
    12    5    6 1   
    13    5   36 1   
    14    5   37 1   
    15    6    7 1   
    16    6    9 1   
    17    7    8 1   
    18    7   38 1   
    19    7   39 1   
    20    8   40 1   
    21    8   41 1   
    22    9   10 ar  
    23    9   14 ar  
    24   10   11 ar  
    25   11   12 ar  
    26   11   42 1   
    27   12   13 ar  
    28   12   43 1   
    29   13   14 ar  
    30   14   15 1   
    31   15   16 1   
    32   16   17 1   
    33   16   19 1   
    34   16   44 1   
    35   17   18 1   
    36   17   45 1   
    37   17   46 1   
    38   18   19 1   
    39   18   20 1   
    40   19   47 1   
    41   19   48 1   
    42   20   21 ar  
    43   20   29 ar  
    44   21   22 ar  
    45   21   49 1   
    46   22   23 ar  
    47   22   50 1   
    48   23   24 ar  
    49   23   28 ar  
    50   24   25 ar  
    51   24   51 1   
    52   25   26 ar  
    53   25   52 1   
    54   26   27 ar  
    55   26   53 1   
    56   27   28 ar  
    57   27   54 1   
    58   28   29 ar  
@<TRIPOS>SUBSTRUCTURE
     1 35E         1 TEMP              0 ****  ****    0 ROOT
