@<TRIPOS>MOLECULE
35E
   54    58     1     0     0
SMALL
bcc


@<TRIPOS>ATOM
      1 O01         0.9990    0.0380   -0.9100 oh        1 35E     -0.601800
      2 C02         2.3550   -0.1970   -0.5610 c3        1 35E      0.134400
      3 C03         2.4710   -0.0300    0.9500 c3        1 35E     -0.070700
      4 C04         3.9330    0.0550    1.3540 c3        1 35E     -0.076400
      5 C05         4.0730    0.1610    2.8730 c3        1 35E      0.182800
      6 N06         3.3920   -0.9270    3.5680 nh        1 35E     -0.713300
      7 C07         1.9870   -1.0610    3.1880 c3        1 35E      0.182800
      8 C08         1.8020   -1.1840    1.6770 c3        1 35E     -0.076400
      9 C09         3.6270   -1.0100    4.9680 ca        1 35E      0.509900
     10 N10         4.1560    0.0340    5.6660 nb        1 35E     -0.666000
     11 C11         4.4540   -0.1570    6.9660 ca        1 35E      0.274900
     12 C12         4.2230   -1.3820    7.6240 ca        1 35E      0.285900
     13 N13         3.6820   -2.4390    6.9820 nb        1 35E     -0.694000
     14 C14         3.3870   -2.2680    5.6750 ca        1 35E      0.506300
     15 O15         2.8040   -3.2860    4.9460 os        1 35E     -0.415100
     16 C16         2.7430   -4.5710    5.5500 cy        1 35E      0.106100
     17 C17         1.9690   -5.5280    4.5900 cy        1 35E      0.156300
     18 N18         0.8770   -5.6230    5.5820 nh        1 35E     -0.708300
     19 C19         1.5780   -4.7640    6.5640 cy        1 35E      0.156300
     20 C20         0.3780   -6.8760    6.0080 ca        1 35E      0.622200
     21 C21        -0.3640   -6.9110    7.2570 ca        1 35E     -0.259300
     22 C22        -0.9670   -8.0780    7.6360 ca        1 35E     -0.064000
     23 C23        -0.8590   -9.2360    6.8160 ca        1 35E     -0.175300
     24 C24        -1.4670  -10.4680    7.1620 ca        1 35E     -0.100000
     25 C25        -1.3370  -11.5620    6.3420 ca        1 35E     -0.141000
     26 C26        -0.5920  -11.4660    5.1430 ca        1 35E     -0.116000
     27 C27         0.0110  -10.2890    4.7760 ca        1 35E     -0.178300
     28 C28        -0.1050   -9.1270    5.6080 ca        1 35E      0.431600
     29 N29         0.5140   -7.9590    5.2230 nb        1 35E     -0.718000
     30 H1          0.9330   -0.1050   -1.8610 ho        1 35E      0.400000
     31 H2          3.0140    0.5470   -1.0840 h1        1 35E      0.023200
     32 H3          2.6590   -1.2330   -0.8700 h1        1 35E      0.023200
     33 H4          1.9510    0.9270    1.2380 hc        1 35E      0.066700
     34 H5          4.4090    0.9620    0.8980 hc        1 35E      0.054200
     35 H6          4.4820   -0.8480    0.9790 hc        1 35E      0.054200
     36 H7          5.1660    0.1120    3.1370 h1        1 35E      0.049450
     37 H8          3.6790    1.1680    3.1970 h1        1 35E      0.049450
     38 H9          1.5720   -1.9870    3.6780 h1        1 35E      0.049450
     39 H10         1.3900   -0.1740    3.5530 h1        1 35E      0.049450
     40 H11         0.7050   -1.1830    1.4500 hc        1 35E      0.054200
     41 H12         2.2290   -2.1570    1.3190 hc        1 35E      0.054200
     42 H13         4.8890    0.7090    7.4920 h4        1 35E      0.034100
     43 H14         4.4720   -1.5320    8.6870 h4        1 35E      0.034100
     44 H15         3.7460   -4.9110    5.8890 h1        1 35E      0.083700
     45 H16         2.5200   -6.4690    4.3590 h1        1 35E      0.078950
     46 H17         1.6050   -5.0460    3.6500 h1        1 35E      0.078950
     47 H18         0.9890   -3.8410    6.7760 h1        1 35E      0.078950
     48 H19         1.8790   -5.2590    7.5180 h1        1 35E      0.078950
     49 H20        -0.4410   -6.0010    7.8670 ha        1 35E      0.146000
     50 H21        -1.5420   -8.1410    8.5730 ha        1 35E      0.138000
     51 H22        -2.0440  -10.5280    8.0970 ha        1 35E      0.132000
     52 H23        -1.8070  -12.5210    6.6040 ha        1 35E      0.133000
     53 H24        -0.5020  -12.3560    4.5010 ha        1 35E      0.133000
     54 H25         0.5870  -10.2190    3.8400 ha        1 35E      0.148000
@<TRIPOS>BOND
     1    1    2 1   
     2    1   30 1   
     3    2    3 1   
     4    2   31 1   
     5    2   32 1   
     6    3    4 1   
     7    3    8 1   
     8    3   33 1   
     9    4    5 1   
    10    4   34 1   
    11    4   35 1   
    12    5    6 1   
    13    5   36 1   
    14    5   37 1   
    15    6    7 1   
    16    6    9 1   
    17    7    8 1   
    18    7   38 1   
    19    7   39 1   
    20    8   40 1   
    21    8   41 1   
    22    9   10 ar  
    23    9   14 ar  
    24   10   11 ar  
    25   11   12 ar  
    26   11   42 1   
    27   12   13 ar  
    28   12   43 1   
    29   13   14 ar  
    30   14   15 1   
    31   15   16 1   
    32   16   17 1   
    33   16   19 1   
    34   16   44 1   
    35   17   18 1   
    36   17   45 1   
    37   17   46 1   
    38   18   19 1   
    39   18   20 1   
    40   19   47 1   
    41   19   48 1   
    42   20   21 ar  
    43   20   29 ar  
    44   21   22 ar  
    45   21   49 1   
    46   22   23 ar  
    47   22   50 1   
    48   23   24 ar  
    49   23   28 ar  
    50   24   25 ar  
    51   24   51 1   
    52   25   26 ar  
    53   25   52 1   
    54   26   27 ar  
    55   26   53 1   
    56   27   28 ar  
    57   27   54 1   
    58   28   29 ar  
@<TRIPOS>SUBSTRUCTURE
     1 35E         1 TEMP              0 ****  ****    0 ROOT
