@<TRIPOS>MOLECULE
35F
   42    31     1     0     0
SMALL
bcc


@<TRIPOS>ATOM
      1 C4         -2.0190    0.2560    2.4590 c1        1 35F     -0.032000
      2 C5         -0.9120   -0.6150    2.4490 c1        1 35F     -0.063500
      3 C6         -0.3510   -1.0160    3.6220 c1        1 35F     -0.063500
      4 C10        -0.1800   -1.2840    0.0320 c1        1 35F      0.014000
      5 C13        -0.1840   -1.3770   -2.7380 c1        1 35F     -0.148000
      6 C15        -1.1770   -1.9760   -0.6360 c1        1 35F     -0.116500
      7 C17        -3.5380    1.6590    3.6050 c2        1 35F     -0.059000
      8 C20        -5.4950    2.6030    3.5940 c1        1 35F     -0.084000
      9 C22         2.7040   -0.6990   -3.6370 c1        1 35F      0.390000
     10 C24         3.7510    0.0480   -4.4320 c1        1 35F     -0.087500
     11 C26         5.4060    0.4940   -5.8440 c1        1 35F     -0.157000
     12 O23         2.6240   -1.9080   -3.7220 o         1 35F     -0.346000
     13 O28         3.9410    1.4050   -4.4390 os        1 35F     -0.108000
     14 C27         4.9620    1.6860   -5.3090 c1        1 35F     -0.087500
     15 C25         4.6610   -0.5150   -5.3040 c1        1 35F     -0.157000
     16 N16         1.8050    0.0140   -2.8030 n3        1 35F     -0.312000
     17 C12         0.8130   -0.6850   -2.0690 c2        1 35F      0.074000
     18 C11         0.8150   -0.6390   -0.6840 c2        1 35F     -0.154000
     19 C14        -1.1790   -2.0230   -2.0210 c1        1 35F     -0.116500
     20 C9         -0.2030   -1.2000    1.4150 c1        1 35F     -0.053000
     21 N8          0.7830   -1.9530    1.9570 n2        1 35F     -0.043000
     22 N7          0.6980   -1.8440    3.3270 n1        1 35F     -0.187000
     23 C3         -0.8770   -0.5600    4.8460 c1        1 35F     -0.116500
     24 C2         -1.9650    0.2960    4.8560 c1        1 35F     -0.116500
     25 C1         -2.5360    0.7040    3.6640 c1        1 35F     -0.036000
     26 N21        -4.8580    1.4240    3.6700 n2        1 35F     -0.155000
     27 N19        -4.5690    3.5670    3.4830 n2        1 35F     -0.193000
     28 N18        -3.3590    2.9830    3.4890 n2        1 35F     -0.088000
     29 H4         -2.4320    0.5310    1.6180 ha        1 35F      0.159000
     30 H13        -0.1860   -1.4100   -3.7130 ha        1 35F      0.174000
     31 H15        -1.8780   -2.4310   -0.1320 ha        1 35F      0.144250
     32 H20        -6.4610    2.7360    3.6160 DU        1 35F      0.217000
     33 H26         6.1270    0.3910   -6.4940 DU        1 35F      0.217000
     34 H27         5.3120    2.5730   -5.5140 DU        1 35F      0.217000
     35 H25         4.7550   -1.4670   -5.5000 DU        1 35F      0.217000
     36 HN16        1.8580    0.9220   -2.7470 hn        1 35F      0.245000
     37 H11         1.5180   -0.1510   -0.2130 ha        1 35F      0.145000
     38 H14        -1.8820   -2.5100   -2.4920 ha        1 35F      0.144250
     39 H3         -0.4750   -0.8480    5.6870 ha        1 35F      0.144250
     40 H2         -2.3300    0.6110    5.7050 ha        1 35F      0.144250
     41 HN19       -4.7320    4.4620    3.4150 DU        1 35F      0.217000
     42 H141        1.2450   -2.2520    3.9310 DU        1 35F      0.217000
@<TRIPOS>BOND
     1    1   25 1   
     2    1   29 1   
     3    2    3 1   
     4    4   18 1   
     5    5   17 1   
     6    5   30 1   
     7    6   19 1   
     8    6   31 1   
     9    7   25 1   
    10    7   26 1   
    11    7   28 1   
    12    8   26 1   
    13    8   27 1   
    14    9   12 1   
    15    9   16 1   
    16   10   13 1   
    17   10   15 1   
    18   11   14 1   
    19   11   15 1   
    20   13   14 1   
    21   16   17 1   
    22   16   36 1   
    23   17   18 1   
    24   18   37 1   
    25   19   38 1   
    26   20   21 1   
    27   21   22 1   
    28   23   24 1   
    29   23   39 1   
    30   24   40 1   
    31   27   28 1   
@<TRIPOS>SUBSTRUCTURE
     1 35F         1 TEMP              0 ****  ****    0 ROOT
