@<TRIPOS>MOLECULE
35F
   42    46     1     0     0
SMALL
bcc


@<TRIPOS>ATOM
      1 C4          3.0450    0.0580   -0.0840 ca        1 35F     -0.031000
      2 C5          2.1730    1.0650   -0.4890 ca        1 35F     -0.209900
      3 C6          2.6320    2.4330   -0.5530 ca        1 35F     -0.041200
      4 C10        -0.1510    0.0190   -1.0070 ca        1 35F     -0.068900
      5 C13        -1.8970   -2.1550   -1.2160 ca        1 35F     -0.176000
      6 C15         0.3070   -1.2030   -1.5140 ca        1 35F     -0.139000
      7 C17         5.2950   -0.6330    0.6680 cc        1 35F      0.577500
      8 C20         7.0450   -1.5810    1.5580 cd        1 35F      0.404400
      9 C22        -4.3320    0.1610    0.4090 c         1 35F      0.604600
     10 C24        -5.7700   -0.0010    0.7000 cc        1 35F      0.170200
     11 C26        -7.9320    0.1740    1.3640 cd        1 35F     -0.276300
     12 O23        -3.7350    1.1710    0.8270 o         1 35F     -0.578100
     13 O28        -6.4450   -1.1500    0.2570 os        1 35F     -0.368800
     14 C27        -7.7640   -1.0140    0.6780 cc        1 35F      0.270600
     15 C25        -6.6450    0.8290    1.3790 cd        1 35F     -0.167300
     16 C12        -2.3740   -0.9240   -0.7030 ca        1 35F      0.065600
     17 C11        -1.4840    0.1660   -0.6070 ca        1 35F     -0.125000
     18 C14        -0.5710   -2.2780   -1.6140 ca        1 35F     -0.108000
     19 C9          0.7690    1.1420   -0.8990 cc        1 35F      0.395500
     20 N8          0.4480    2.4340   -1.1720 nd        1 35F     -0.494100
     21 N7          1.5380    3.1880   -0.9990 na        1 35F     -0.017100
     22 C3          3.9530    2.7710   -0.2240 ca        1 35F     -0.154000
     23 C2          4.7980    1.7470    0.1700 ca        1 35F     -0.064000
     24 C1          4.3570    0.4030    0.2430 ca        1 35F     -0.146500
     25 N21         6.5030   -0.3630    1.3650 nc        1 35F     -0.680000
     26 N19         6.1990   -2.5550    0.9990 na        1 35F     -0.162400
     27 N18         5.1270   -1.9830    0.4520 nd        1 35F     -0.522800
     28 H4          2.6900   -0.9820   -0.0210 ha        1 35F      0.157000
     29 H13        -2.5670   -3.0220   -1.3050 ha        1 35F      0.130000
     30 H15         1.3530   -1.3080   -1.8370 ha        1 35F      0.143000
     31 H20         7.9870   -1.8110    2.0640 h5        1 35F      0.072100
     32 H26        -8.8440    0.5590    1.8120 ha        1 35F      0.169000
     33 H27        -8.4100   -1.8420    0.4010 h4        1 35F      0.058100
     34 H25        -6.4090    1.7890    1.8350 ha        1 35F      0.182000
     35 HN16       -4.2920   -1.6280   -0.5790 hn        1 35F      0.329500
     36 H11        -1.8280    1.1380   -0.2130 ha        1 35F      0.183000
     37 H14        -0.2140   -3.2390   -2.0140 ha        1 35F      0.134000
     38 H3          4.3050    3.8100   -0.2750 ha        1 35F      0.141000
     39 H2          5.8390    1.9900    0.4350 ha        1 35F      0.155000
     40 HN19        6.3140   -3.5400    0.9770 hn        1 35F      0.326700
     41 H141        1.4700    4.1770   -1.0320 hn        1 35F      0.325700
     42 N16        -3.7280   -0.8430   -0.3320 n         1 35F     -0.460100
@<TRIPOS>BOND
     1    1    2 ar  
     2    1   24 ar  
     3    1   28 1   
     4    2    3 ar  
     5    2   19 1   
     6    3   21 1   
     7    3   22 ar  
     8    4    6 ar  
     9    4   17 ar  
    10    4   19 1   
    11    5   16 ar  
    12    5   18 ar  
    13    5   29 1   
    14    6   18 ar  
    15    6   30 1   
    16    7   24 1   
    17    7   25 1   
    18    7   27 2   
    19    8   25 2   
    20    8   26 1   
    21    8   31 1   
    22    9   10 1   
    23    9   12 2   
    24    9   42 1   
    25   10   13 1   
    26   10   15 2   
    27   11   14 2   
    28   11   15 1   
    29   11   32 1   
    30   13   14 1   
    31   14   33 1   
    32   15   34 1   
    33   16   17 ar  
    34   16   42 1   
    35   17   36 1   
    36   18   37 1   
    37   19   20 2   
    38   20   21 1   
    39   21   41 1   
    40   22   23 ar  
    41   22   38 1   
    42   23   24 ar  
    43   23   39 1   
    44   26   27 1   
    45   26   40 1   
    46   35   42 1   
@<TRIPOS>SUBSTRUCTURE
     1 35F         1 TEMP              0 ****  ****    0 ROOT
