@<TRIPOS>MOLECULE
35G
   36    39     1     0     0
SMALL
bcc


@<TRIPOS>ATOM
      1 P          -0.1370    0.0820    0.1190 p5        1 35G      1.629500
      2 O1P        -0.8760    0.0670   -1.1200 o         1 35G     -0.743300
      3 O2P        -0.3990    1.3480    1.0460 oh        1 35G     -0.792400
      4 O5'         1.4680    0.0590    0.0680 os        1 35G     -0.554200
      5 C5'         2.2470   -0.0110    1.2440 c3        1 35G      0.192400
      6 C4'         1.7670   -1.2440    2.0050 c3        1 35G      0.039100
      7 O4'         2.3910   -1.4790    3.2700 os        1 35G     -0.391600
      8 C3'         0.2720   -1.0250    2.3390 c3        1 35G      0.084100
      9 O3'        -0.4810   -1.1270    1.1670 os        1 35G     -0.527200
     10 C2'         0.0130   -2.0970    3.4030 c3        1 35G      0.130100
     11 O2'        -0.3280   -3.3650    2.9000 oh        1 35G     -0.594800
     12 C1'         1.4470   -2.2480    4.0630 c3        1 35G      0.225800
     13 N9          1.5200   -1.7690    5.4260 na        1 35G     -0.170900
     14 C8          2.0570   -0.5620    5.9050 cc        1 35G      0.482400
     15 N7          1.9990   -0.4510    7.2580 nd        1 35G     -0.576000
     16 C5          1.4130   -1.6280    7.6900 cd        1 35G      0.292800
     17 C6          1.0950   -2.0780    9.0390 c         1 35G      0.646000
     18 O6          1.2680   -1.5060   10.1130 o         1 35G     -0.502500
     19 N1          0.4910   -3.3810    9.0850 n         1 35G     -0.503400
     20 C2          0.2570   -4.1040    7.9130 cd        1 35G      0.499800
     21 N2         -0.3710   -5.4600    8.0530 n4        1 35G     -0.795600
     22 N3          0.5270   -3.7330    6.6600 nc        1 35G     -0.516100
     23 C4          1.1080   -2.4800    6.5620 cc        1 35G      0.007800
     24 HOP2       -0.9620    2.0430    0.7090 ho        1 35G      0.505000
     25 H5'1        2.1120    0.9290    1.8420 h1        1 35G      0.086700
     26 H5'2        3.3130   -0.1120    0.9090 h1        1 35G      0.086700
     27 H4'         1.9220   -2.1720    1.3810 h1        1 35G      0.098700
     28 H3'         0.1020   -0.0060    2.7960 h1        1 35G      0.095700
     29 H2'        -0.7700   -1.7800    4.1400 h1        1 35G      0.083700
     30 HO2'       -0.7350   -3.2380    2.0280 ho        1 35G      0.452000
     31 H1'         1.7760   -3.3290    4.0340 h2        1 35G      0.122700
     32 H8          2.4900    0.1880    5.2240 h5        1 35G      0.106100
     33 HN1         0.2560   -3.7440    9.9840 hn        1 35G      0.350500
     34 HN21       -0.5020   -5.8790    7.1190 hn        1 35G      0.483133
     35 HN22       -1.2850   -5.3680    8.5120 hn        1 35G      0.483133
     36 H23         0.2430   -6.0650    8.6100 hn        1 35G      0.483133
@<TRIPOS>BOND
     1    1    2 2   
     2    1    3 1   
     3    1    4 1   
     4    1    9 1   
     5    3   24 1   
     6    4    5 1   
     7    5    6 1   
     8    5   25 1   
     9    5   26 1   
    10    6    7 1   
    11    6    8 1   
    12    6   27 1   
    13    7   12 1   
    14    8    9 1   
    15    8   10 1   
    16    8   28 1   
    17   10   11 1   
    18   10   12 1   
    19   10   29 1   
    20   11   30 1   
    21   12   13 1   
    22   12   31 1   
    23   13   14 1   
    24   13   23 1   
    25   14   15 2   
    26   14   32 1   
    27   15   16 1   
    28   16   17 1   
    29   16   23 2   
    30   17   18 2   
    31   17   19 1   
    32   19   20 1   
    33   19   33 1   
    34   20   21 1   
    35   20   22 2   
    36   21   34 1   
    37   21   35 1   
    38   21   36 1   
    39   22   23 1   
@<TRIPOS>SUBSTRUCTURE
     1 35G         1 TEMP              0 ****  ****    0 ROOT
