@<TRIPOS>MOLECULE
35G
   35    34     1     0     0
SMALL
bcc


@<TRIPOS>ATOM
      1 P          -0.9030    1.9650   -3.3350 p3        1 35G      2.626000
      2 O1P        -1.5170    0.7460   -3.9180 o         1 35G     -1.045000
      3 O2P        -1.5540    3.1090   -4.2220 o         1 35G     -0.822000
      4 O5'         0.2500    1.9560   -3.4180 os        1 35G     -0.709000
      5 C5'         0.9080    2.4770   -2.2450 c3        1 35G      0.012000
      6 C4'         0.4150    1.5180   -1.3360 c3        1 35G     -0.053000
      7 O4'         0.7490    0.2990   -1.8130 os        1 35G     -0.253000
      8 C3'        -0.5010    1.5240   -1.2250 c3        1 35G      0.050000
      9 O3'        -1.1410    2.0820   -2.2690 os        1 35G     -0.751000
     10 C2'        -0.9320   -0.0520   -0.9890 c3        1 35G      0.006000
     11 O2'        -2.1250   -0.4510   -1.9730 oh        1 35G     -0.316000
     12 C1'        -0.0730   -0.5980   -1.2250 c3        1 35G      0.156000
     13 N9          0.6300   -1.1950    0.1620 n3        1 35G     -0.181000
     14 C8          1.7770   -1.7840   -0.2660 c1        1 35G     -0.073000
     15 N7          2.4140   -2.2960    0.8170 n2        1 35G     -0.056000
     16 C5          1.6650   -2.0260    1.9100 c1        1 35G     -0.237000
     17 C6          1.8750   -2.3040    3.3680 c1        1 35G      0.398000
     18 O6          2.8620   -2.9260    3.7380 o         1 35G     -0.315000
     19 N1          0.9070   -1.9150    4.2970 n3        1 35G     -0.349000
     20 C2         -0.2800   -1.2550    3.8560 c2        1 35G      0.244000
     21 N2         -1.3050   -0.9390    4.7900 n3        1 35G     -0.336000
     22 N3         -0.4770   -0.9940    2.4650 n1        1 35G     -0.271000
     23 C4          0.5590   -1.3430    1.5020 c1        1 35G      0.065000
     24 HOP2       -2.4360    3.0210   -4.2190 ho        1 35G      0.289000
     25 H5'1        1.8970    2.4340   -2.3280 h1        1 35G      0.124000
     26 H5'2        0.5910    3.3880   -2.0230 h1        1 35G      0.124000
     27 H4'         0.8480    1.6520   -0.4590 h1        1 35G      0.132000
     28 H3'        -0.7200    2.0400   -0.4050 h1        1 35G      0.123000
     29 H2'        -1.1950   -0.2040   -0.0400 h1        1 35G      0.121000
     30 HO2'       -2.7360   -0.9480   -1.5220 ho        1 35G      0.235000
     31 H1'        -0.2910   -1.3390   -1.8550 h2        1 35G      0.166000
     32 H8          2.0550   -1.8890   -1.1990 DU        1 35G      0.210000
     33 HN1         1.0590   -2.0320    5.1910 hn        1 35G      0.249000
     34 HN21       -2.1260   -0.6930    4.4950 hn        1 35G      0.218500
     35 HN22       -1.1490   -1.0280    5.6920 hn        1 35G      0.218500
@<TRIPOS>BOND
     1    1    2 1   
     2    1    4 1   
     3    1    9 1   
     4    3   24 1   
     5    4    5 1   
     6    5    6 1   
     7    5   25 1   
     8    5   26 1   
     9    6    7 1   
    10    6    8 1   
    11    6   27 1   
    12    7   12 1   
    13    8    9 1   
    14    8   10 1   
    15    8   28 1   
    16   10   11 1   
    17   10   12 1   
    18   10   29 1   
    19   11   30 1   
    20   12   13 1   
    21   12   31 1   
    22   13   14 1   
    23   13   23 1   
    24   14   15 1   
    25   15   16 1   
    26   16   23 1   
    27   17   18 1   
    28   17   19 1   
    29   19   20 1   
    30   19   33 1   
    31   20   21 1   
    32   20   22 1   
    33   21   34 1   
    34   21   35 1   
@<TRIPOS>SUBSTRUCTURE
     1 35G         1 TEMP              0 ****  ****    0 ROOT
