@<TRIPOS>MOLECULE
35G
   36    39     1     0     0
SMALL
bcc


@<TRIPOS>ATOM
      1 P          -0.1350    0.0890    0.1220 p5        1 35G      1.629500
      2 O1P        -0.8760    0.0760   -1.1160 o         1 35G     -0.743300
      3 O2P        -0.3930    1.3550    1.0500 oh        1 35G     -0.792400
      4 O5'         1.4690    0.0620    0.0700 os        1 35G     -0.554200
      5 C5'         2.2490   -0.0110    1.2440 c3        1 35G      0.192400
      6 C4'         1.7670   -1.2440    2.0050 c3        1 35G      0.039100
      7 O4'         2.3910   -1.4820    3.2690 os        1 35G     -0.391600
      8 C3'         0.2720   -1.0220    2.3410 c3        1 35G      0.084100
      9 O3'        -0.4820   -1.1200    1.1690 os        1 35G     -0.527200
     10 C2'         0.0120   -2.0940    3.4040 c3        1 35G      0.130100
     11 O2'        -0.3330   -3.3600    2.8990 oh        1 35G     -0.594800
     12 C1'         1.4460   -2.2490    4.0620 c3        1 35G      0.225800
     13 N9          1.5220   -1.7720    5.4260 na        1 35G     -0.170900
     14 C8          2.0620   -0.5670    5.9060 cc        1 35G      0.482400
     15 N7          2.0060   -0.4590    7.2590 nd        1 35G     -0.576000
     16 C5          1.4160   -1.6340    7.6900 cd        1 35G      0.292800
     17 C6          1.0980   -2.0840    9.0380 c         1 35G      0.646000
     18 O6          1.2740   -1.5150   10.1130 o         1 35G     -0.502500
     19 N1          0.4900   -3.3860    9.0830 ns        1 35G     -0.503400
     20 C2          0.2520   -4.1060    7.9100 cd        1 35G      0.499800
     21 N2         -0.3800   -5.4600    8.0500 nz        1 35G     -0.795600
     22 N3          0.5220   -3.7350    6.6580 nc        1 35G     -0.516100
     23 C4          1.1070   -2.4830    6.5610 cc        1 35G      0.007800
     24 HOP2       -0.9540    2.0510    0.7140 ho        1 35G      0.505000
     25 H5'1        2.1170    0.9280    1.8440 h1        1 35G      0.086700
     26 H5'2        3.3150   -0.1150    0.9090 h1        1 35G      0.086700
     27 H4'         1.9190   -2.1720    1.3800 h1        1 35G      0.098700
     28 H3'         0.1060   -0.0020    2.7980 h1        1 35G      0.095700
     29 H2'        -0.7700   -1.7760    4.1410 h1        1 35G      0.083700
     30 HO2'       -0.7410   -3.2310    2.0280 ho        1 35G      0.452000
     31 H1'         1.7710   -3.3310    4.0310 h2        1 35G      0.122700
     32 H8          2.4970    0.1810    5.2250 h5        1 35G      0.106100
     33 HN1         0.2540   -3.7480    9.9830 hn        1 35G      0.350500
     34 HN21       -1.2940   -5.3660    8.5080 hn        1 35G      0.483133
     35 HN22       -0.5130   -5.8780    7.1150 hn        1 35G      0.483133
     36 H23         0.2320   -6.0680    8.6060 hn        1 35G      0.483133
@<TRIPOS>BOND
     1    1    2 2   
     2    1    3 1   
     3    1    4 1   
     4    1    9 1   
     5    3   24 1   
     6    4    5 1   
     7    5    6 1   
     8    5   25 1   
     9    5   26 1   
    10    6    7 1   
    11    6    8 1   
    12    6   27 1   
    13    7   12 1   
    14    8    9 1   
    15    8   10 1   
    16    8   28 1   
    17   10   11 1   
    18   10   12 1   
    19   10   29 1   
    20   11   30 1   
    21   12   13 1   
    22   12   31 1   
    23   13   14 1   
    24   13   23 1   
    25   14   15 2   
    26   14   32 1   
    27   15   16 1   
    28   16   17 1   
    29   16   23 2   
    30   17   18 2   
    31   17   19 1   
    32   19   20 1   
    33   19   33 1   
    34   20   21 1   
    35   20   22 2   
    36   21   34 1   
    37   21   35 1   
    38   21   36 1   
    39   22   23 1   
@<TRIPOS>SUBSTRUCTURE
     1 35G         1 TEMP              0 ****  ****    0 ROOT
