@<TRIPOS>MOLECULE
35G
   35    38     1     0     0
SMALL
bcc


@<TRIPOS>ATOM
      1 P          -4.4950    0.4260   -0.0180 p5        1 35G      1.623500
      2 O1P        -5.8870    0.0610    0.1230 o         1 35G     -0.764300
      3 O2P        -4.0750    1.6770    0.8770 oh        1 35G     -0.787400
      4 O5'        -3.9840    0.8820   -1.4670 os        1 35G     -0.560200
      5 C5'        -2.6190    1.1650   -1.7040 c3        1 35G      0.183400
      6 C4'        -1.8250   -0.0460   -1.2300 c3        1 35G      0.047100
      7 O4'        -0.4120    0.0760   -1.3370 os        1 35G     -0.399600
      8 C3'        -2.0980   -0.2250    0.2830 c3        1 35G      0.070100
      9 O3'        -3.4090   -0.6830    0.4700 os        1 35G     -0.527200
     10 C2'        -0.9750   -1.1840    0.6950 c3        1 35G      0.128100
     11 O2'        -1.2550   -2.5340    0.4040 oh        1 35G     -0.584800
     12 C1'         0.1870   -0.7560   -0.2890 c3        1 35G      0.243800
     13 N9          1.2340   -0.0190    0.3530 na        1 35G     -0.219900
     14 C8          1.1080    1.1270    1.1880 cc        1 35G      0.398400
     15 N7          2.2870    1.6730    1.5210 nd        1 35G     -0.574000
     16 C5          3.2450    0.8910    0.8670 cd        1 35G      0.171800
     17 C6          4.6890    0.9940    0.8560 c         1 35G      0.652000
     18 O6          5.4100    1.8180    1.4350 o         1 35G     -0.593500
     19 N1          5.3300    0.0040    0.0590 n         1 35G     -0.509400
     20 C2          4.6210   -1.0030   -0.6230 cd        1 35G      0.693800
     21 N2          5.3750   -1.9990   -1.2760 nh        1 35G     -0.895800
     22 N3          3.2670   -1.1050   -0.6480 nc        1 35G     -0.676100
     23 C4          2.6110   -0.1610    0.1160 cc        1 35G      0.138800
     24 HOP2       -4.7620    2.0970    1.3910 ho        1 35G      0.495000
     25 H5'1       -2.5180    1.3230   -2.8110 h1        1 35G      0.081700
     26 H5'2       -2.3290    2.0980   -1.1520 h1        1 35G      0.081700
     27 H4'        -2.1260   -0.9670   -1.8090 h1        1 35G      0.090700
     28 H3'        -1.9730    0.7510    0.8370 h1        1 35G      0.084700
     29 H2'        -0.6970   -1.0760    1.7740 h1        1 35G      0.083700
     30 HO2'       -2.1630   -2.7020    0.6990 ho        1 35G      0.437000
     31 H1'         0.6160   -1.6630   -0.8080 h2        1 35G      0.136700
     32 H8          0.1250    1.4850    1.5130 h5        1 35G      0.063100
     33 HN1         6.3280   -0.0010    0.0630 hn        1 35G      0.336500
     34 HN21        6.2370   -1.7060   -1.6770 hn        1 35G      0.425800
     35 HN22        4.8460   -2.6290   -1.8410 hn        1 35G      0.425800
@<TRIPOS>BOND
     1    1    2 2   
     2    1    3 1   
     3    1    4 1   
     4    1    9 1   
     5    3   24 1   
     6    4    5 1   
     7    5    6 1   
     8    5   25 1   
     9    5   26 1   
    10    6    7 1   
    11    6    8 1   
    12    6   27 1   
    13    7   12 1   
    14    8    9 1   
    15    8   10 1   
    16    8   28 1   
    17   10   11 1   
    18   10   12 1   
    19   10   29 1   
    20   11   30 1   
    21   12   13 1   
    22   12   31 1   
    23   13   14 1   
    24   13   23 1   
    25   14   15 2   
    26   14   32 1   
    27   15   16 1   
    28   16   17 1   
    29   16   23 2   
    30   17   18 2   
    31   17   19 1   
    32   19   20 1   
    33   19   33 1   
    34   20   21 1   
    35   20   22 2   
    36   21   34 1   
    37   21   35 1   
    38   22   23 1   
@<TRIPOS>SUBSTRUCTURE
     1 35G         1 TEMP              0 ****  ****    0 ROOT
