@<TRIPOS>MOLECULE
35G
   36    39     1     0     0
SMALL
bcc


@<TRIPOS>ATOM
      1 P          -0.1500    0.0960    0.1300 p5        1 35G      1.629500
      2 O1P        -0.8920    0.0820   -1.1080 o         1 35G     -0.743300
      3 O2P        -0.4170    1.3560    1.0620 oh        1 35G     -0.792400
      4 O5'         1.4540    0.0810    0.0760 os        1 35G     -0.554200
      5 C5'         2.2350    0.0090    1.2500 c3        1 35G      0.192400
      6 C4'         1.7630   -1.2290    2.0060 c3        1 35G      0.039100
      7 O4'         2.3900   -1.4680    3.2690 os        1 35G     -0.391600
      8 C3'         0.2670   -1.0190    2.3440 c3        1 35G      0.084100
      9 O3'        -0.4870   -1.1190    1.1730 os        1 35G     -0.527200
     10 C2'         0.0160   -2.0970    3.4040 c3        1 35G      0.130100
     11 O2'        -0.3200   -3.3640    2.8960 oh        1 35G     -0.594800
     12 C1'         1.4520   -2.2440    4.0610 c3        1 35G      0.225800
     13 N9          1.5250   -1.7710    5.4250 na        1 35G     -0.170900
     14 C8          2.0600   -0.5650    5.9100 cc        1 35G      0.482400
     15 N7          2.0030   -0.4600    7.2630 nd        1 35G     -0.576000
     16 C5          1.4190   -1.6400    7.6900 cd        1 35G      0.292800
     17 C6          1.1020   -2.0950    9.0370 c         1 35G      0.646000
     18 O6          1.2750   -1.5290   10.1130 o         1 35G     -0.502500
     19 N1          0.5000   -3.4000    9.0780 n         1 35G     -0.503400
     20 C2          0.2660   -4.1180    7.9030 cd        1 35G      0.499800
     21 N2         -0.3600   -5.4750    8.0370 n4        1 35G     -0.795600
     22 N3          0.5340   -3.7410    6.6520 nc        1 35G     -0.516100
     23 C4          1.1140   -2.4870    6.5580 cc        1 35G      0.007800
     24 HOP2       -0.9830    2.0500    0.7290 ho        1 35G      0.505000
     25 H5'1        2.0980    0.9460    1.8520 h1        1 35G      0.086700
     26 H5'2        3.3020   -0.0850    0.9130 h1        1 35G      0.086700
     27 H4'         1.9210   -2.1540    1.3780 h1        1 35G      0.098700
     28 H3'         0.0940   -0.0020    2.8050 h1        1 35G      0.095700
     29 H2'        -0.7670   -1.7870    4.1430 h1        1 35G      0.083700
     30 HO2'       -0.7290   -3.2350    2.0240 ho        1 35G      0.452000
     31 H1'         1.7850   -3.3230    4.0260 h2        1 35G      0.122700
     32 H8          2.4920    0.1880    5.2310 h5        1 35G      0.106100
     33 HN1         0.2660   -3.7670    9.9760 hn        1 35G      0.350500
     34 HN21       -0.4910   -5.8910    7.1010 hn        1 35G      0.483133
     35 HN22        0.2550   -6.0820    8.5920 hn        1 35G      0.483133
     36 H23        -1.2740   -5.3870    8.4960 hn        1 35G      0.483133
@<TRIPOS>BOND
     1    1    2 2   
     2    1    3 1   
     3    1    4 1   
     4    1    9 1   
     5    3   24 1   
     6    4    5 1   
     7    5    6 1   
     8    5   25 1   
     9    5   26 1   
    10    6    7 1   
    11    6    8 1   
    12    6   27 1   
    13    7   12 1   
    14    8    9 1   
    15    8   10 1   
    16    8   28 1   
    17   10   11 1   
    18   10   12 1   
    19   10   29 1   
    20   11   30 1   
    21   12   13 1   
    22   12   31 1   
    23   13   14 1   
    24   13   23 1   
    25   14   15 2   
    26   14   32 1   
    27   15   16 1   
    28   16   17 1   
    29   16   23 2   
    30   17   18 2   
    31   17   19 1   
    32   19   20 1   
    33   19   33 1   
    34   20   21 1   
    35   20   22 2   
    36   21   34 1   
    37   21   35 1   
    38   21   36 1   
    39   22   23 1   
@<TRIPOS>SUBSTRUCTURE
     1 35G         1 TEMP              0 ****  ****    0 ROOT
