@<TRIPOS>MOLECULE
35H
   56    55     1     0     0
SMALL
bcc


@<TRIPOS>ATOM
      1 C1          0.6030    1.4970   -0.5870 c2        1 35H     -0.037000
      2 C2          1.0570    1.1800    0.7430 c2        1 35H     -0.210000
      3 C3         -0.4760    3.7630    5.1150 c1        1 35H     -0.226000
      4 C4          0.7120    0.0840    1.4460 c2        1 35H     -0.031000
      5 C5         -0.7850    4.8650    4.7690 c1        1 35H     -0.226000
      6 C6          1.1570   -0.2000    2.8010 cx        1 35H     -0.265000
      7 C7          2.5150    0.2720    3.3150 cx        1 35H     -0.000500
      8 C8          1.2580    0.9230    3.8330 cx        1 35H     -0.000500
      9 O9          0.8060    0.7050    5.1220 oh        1 35H     -0.286500
     10 C11        -0.3810    0.8330   -1.2340 c2        1 35H     -0.167000
     11 C15         1.2470    0.4050   -3.5460 c2        1 35H     -0.535000
     12 C17         0.6360    4.6510   -6.8510 c2        1 35H      0.025000
     13 C18         0.1160    4.2750   -5.6700 c2        1 35H     -0.844000
     14 C19         2.1360    0.2320   -4.5210 c1        1 35H      0.439000
     15 C21        -1.3790    2.3170   -5.2060 c2        1 35H     -0.079000
     16 C27         0.2660   10.0460   -6.1920 c1        1 35H     -0.133000
     17 C30         1.8190    7.7200   -4.5300 c2        1 35H     -0.125000
     18 C31        -0.6370    8.0450   -4.7310 c3        1 35H     -0.002000
     19 S22         0.9170    4.6000   -4.2040 s6        1 35H      2.840000
     20 O24         0.5310    3.5610   -3.2960 o         1 35H     -0.960500
     21 N23         0.3190    5.9890   -3.6850 n7        1 35H     -0.809000
     22 C26         0.5590    7.2190   -4.3220 c2        1 35H     -0.167000
     23 C29        -0.1930    9.1520   -5.5290 c1        1 35H     -0.160000
     24 C28         2.1340    8.8060   -5.3210 c1        1 35H     -0.076000
     25 C20        -1.1550    3.5660   -5.6410 c2        1 35H     -0.044000
     26 C13        -0.0340    1.0910   -3.5960 c2        1 35H      0.426000
     27 O16        -0.3130    1.4660   -4.8780 os        1 35H     -0.153000
     28 N12        -0.8540    1.1900   -2.5380 n3        1 35H     -0.127000
     29 C14        -2.1460    1.8460   -2.5690 c3        1 35H     -0.108000
     30 O10         3.1560   -0.5540    4.2360 oh        1 35H     -0.286500
     31 H1          1.7380    1.9310    1.1840 ha        1 35H      0.147000
     32 H2         -0.2050    2.7850    5.4370 ha        1 35H      0.226000
     33 H3          0.0400   -0.6780    1.0120 ha        1 35H      0.126000
     34 H4          0.8110   -1.1850    3.1830 hc        1 35H      0.149000
     35 H5         -1.0600    5.8460    4.4730 ha        1 35H      0.226000
     36 H6          3.2030    0.8200    2.6430 h1        1 35H      0.146000
     37 H7          0.9990    1.9640    3.5450 h1        1 35H      0.146000
     38 H8          1.2480   -0.0820    5.4760 ho        1 35H      0.229000
     39 H9          1.1080    2.3580   -1.0740 ha        1 35H      0.167000
     40 H10        -0.9520   -0.0100   -0.8040 h4        1 35H      0.174000
     41 H11         0.1490    4.4340   -7.8140 ha        1 35H      0.150000
     42 H12         1.5980    5.1900   -6.9160 ha        1 35H      0.150000
     43 H13         1.5450   -0.0240   -2.5550 ha        1 35H      0.241000
     44 H16        -1.3670    7.4220   -5.3200 hc        1 35H      0.107500
     45 H17        -0.2880    6.0560   -2.9000 hn        1 35H      0.260000
     46 H18        -1.1760    8.4190   -3.8150 hc        1 35H      0.107500
     47 H19         2.5600    9.7710   -5.0750 ha        1 35H      0.158000
     48 H20        -2.0180    4.1230   -6.0580 ha        1 35H      0.166000
     49 H21        -2.8450    1.2660   -3.2290 h1        1 35H      0.121667
     50 H22        -2.5700    1.8720   -1.5280 h1        1 35H      0.121667
     51 H23        -2.0320    2.9000   -2.9400 h1        1 35H      0.121667
     52 H24         3.6940   -1.1790    3.7300 ho        1 35H      0.229000
     53 H14         0.6190   10.8460   -6.7990 ha        1 35H      0.244000
     54 O25         2.2980    4.6710   -4.4650 o         1 35H     -0.960500
     55 H121       -2.3500    1.8000   -5.2320 h4        1 35H      0.172000
     56 H15         2.7240    7.1470   -4.2090 ha        1 35H      0.203000
@<TRIPOS>BOND
     1    1    2 1   
     2    1   10 1   
     3    1   39 1   
     4    2    4 1   
     5    2   31 1   
     6    3    5 1   
     7    3   32 1   
     8    4    6 1   
     9    4   33 1   
    10    5   35 1   
    11    6    7 1   
    12    6    8 1   
    13    6   34 1   
    14    7    8 1   
    15    7   30 1   
    16    7   36 1   
    17    8    9 1   
    18    8   37 1   
    19    9   38 1   
    20   10   28 1   
    21   10   40 1   
    22   11   14 1   
    23   11   26 1   
    24   11   43 1   
    25   12   13 1   
    26   12   41 1   
    27   12   42 1   
    28   13   19 1   
    29   13   25 1   
    30   15   25 1   
    31   15   27 1   
    32   15   55 1   
    33   16   23 1   
    34   16   53 1   
    35   17   22 1   
    36   17   24 1   
    37   17   56 1   
    38   18   22 1   
    39   18   23 1   
    40   18   44 1   
    41   18   46 1   
    42   19   20 1   
    43   19   21 1   
    44   19   54 1   
    45   21   22 1   
    46   21   45 1   
    47   24   47 1   
    48   25   48 1   
    49   26   27 1   
    50   26   28 1   
    51   28   29 1   
    52   29   49 1   
    53   29   50 1   
    54   29   51 1   
    55   30   52 1   
@<TRIPOS>SUBSTRUCTURE
     1 35H         1 TEMP              0 ****  ****    0 ROOT
