@<TRIPOS>MOLECULE
35H
   56    55     1     0     0
SMALL
bcc


@<TRIPOS>ATOM
      1 C1          0.9330    0.7460   -0.4290 c2        1 35H     -0.031000
      2 C2          1.5290    0.1410    0.7920 c3        1 35H     -0.090000
      3 C3         -3.1960    2.2060    1.3740 c1        1 35H     -0.228000
      4 C4          1.5280    1.1040    1.8930 cv        1 35H     -0.189000
      5 C5         -2.3280    2.4900    2.1470 c1        1 35H     -0.228000
      6 C6          1.6630    1.0390    3.2390 cv        1 35H     -0.160000
      7 C7          1.5400    2.5580    3.4370 cy        1 35H      0.003000
      8 C8          1.3270    2.6310    1.8650 cy        1 35H      0.048000
      9 O9          2.2430    3.3810    1.1320 oh        1 35H     -0.305000
     10 C11        -0.1010    0.1710   -1.0910 c2        1 35H     -0.147000
     11 C15         1.2320   -0.0010   -3.4230 c2        1 35H     -0.482000
     12 C17         0.6070    4.5940   -6.2700 c2        1 35H      0.024000
     13 C18         0.1830    4.1010   -5.0940 c2        1 35H     -0.841000
     14 C19         1.8730   -0.4180   -2.3250 c1        1 35H      0.311000
     15 C21        -1.4040    2.2010   -4.7050 c2        1 35H     -0.086000
     16 C27         0.7510    9.8490   -5.0050 c1        1 35H     -0.134000
     17 C30         2.2870    7.2360   -3.8170 c2        1 35H     -0.130000
     18 C31        -0.1360    7.7650   -3.6540 c3        1 35H     -0.003000
     19 S22         1.1610    4.1750   -3.7010 s6        1 35H      2.847000
     20 O24         0.7680    3.0710   -2.8750 o         1 35H     -0.962500
     21 N23         0.7560    5.5370   -2.9670 n3        1 35H     -0.812000
     22 C26         1.0240    6.8100   -3.4980 c2        1 35H     -0.160000
     23 C29         0.3010    8.9210   -4.3840 c1        1 35H     -0.160000
     24 C28         2.5980    8.3800   -4.5280 c1        1 35H     -0.076000
     25 C20        -1.1300    3.4780   -5.0130 c2        1 35H     -0.041000
     26 C13        -0.0200    0.7430   -3.3800 c2        1 35H      0.415000
     27 O16        -0.3710    1.2550   -4.5840 os        1 35H     -0.123000
     28 N12        -0.7350    0.7600   -2.2340 n3        1 35H     -0.162000
     29 C14        -1.9330    1.5340   -2.0040 c3        1 35H     -0.104000
     30 O10         0.3810    2.9870    4.0940 oh        1 35H     -0.313000
     31 H1          0.9810   -0.7940    1.0970 hc        1 35H      0.129000
     32 H2         -3.9940    1.9610    0.7210 ha        1 35H      0.228500
     33 H3          2.5900   -0.1640    0.5480 hc        1 35H      0.129000
     34 H4          1.7880    0.2550    3.9730 ha        1 35H      0.170000
     35 H5         -1.5620    2.7410    2.8460 ha        1 35H      0.228500
     36 H6          2.4600    3.0620    3.8120 h1        1 35H      0.110000
     37 H7          0.3110    2.9750    1.5600 h1        1 35H      0.147000
     38 H8          3.1300    3.1740    1.4560 ho        1 35H      0.214000
     39 H9          1.3600    1.7270   -0.7370 ha        1 35H      0.191000
     40 H10        -0.5850   -0.7730   -0.7720 h4        1 35H      0.188000
     41 H11         0.0070    4.5380   -7.1920 ha        1 35H      0.149500
     42 H12         1.5970    5.0720   -6.3770 ha        1 35H      0.149500
     43 H13         1.6720   -0.1750   -4.4280 ha        1 35H      0.238000
     44 H16        -0.9870    7.2700   -4.2010 hc        1 35H      0.108000
     45 H17         0.2790    5.5580   -2.0940 hn        1 35H      0.263000
     46 H18        -0.5200    8.0690   -2.6390 hc        1 35H      0.108000
     47 H19         3.1320    9.2740   -4.2290 ha        1 35H      0.154000
     48 H20        -1.9850    4.1370   -5.2670 ha        1 35H      0.166000
     49 H21        -2.1990    1.4980   -0.9100 h1        1 35H      0.122667
     50 H22        -1.7600    2.6040   -2.3000 h1        1 35H      0.122667
     51 H23        -2.7780    1.0950   -2.6000 h1        1 35H      0.122667
     52 H24         0.5560    2.9500    5.0430 ho        1 35H      0.222000
     53 H14         1.0960   10.6840   -5.5670 ha        1 35H      0.244000
     54 O25         2.5060    4.1630   -4.1110 o         1 35H     -0.962500
     55 H121       -2.4070    1.7500   -4.6770 h4        1 35H      0.173000
     56 H15         3.1700    6.5650   -3.6790 ha        1 35H      0.203000
@<TRIPOS>BOND
     1    1    2 1   
     2    1   10 1   
     3    1   39 1   
     4    2    4 1   
     5    2   31 1   
     6    2   33 1   
     7    3    5 1   
     8    3   32 1   
     9    4    6 1   
    10    4    8 1   
    11    5   35 1   
    12    6    7 1   
    13    6   34 1   
    14    7    8 1   
    15    7   30 1   
    16    7   36 1   
    17    8    9 1   
    18    8   37 1   
    19    9   38 1   
    20   10   28 1   
    21   10   40 1   
    22   11   14 1   
    23   11   26 1   
    24   11   43 1   
    25   12   13 1   
    26   12   41 1   
    27   12   42 1   
    28   13   19 1   
    29   13   25 1   
    30   15   25 1   
    31   15   27 1   
    32   15   55 1   
    33   16   23 1   
    34   16   53 1   
    35   17   22 1   
    36   17   24 1   
    37   17   56 1   
    38   18   22 1   
    39   18   23 1   
    40   18   44 1   
    41   18   46 1   
    42   19   20 1   
    43   19   21 1   
    44   19   54 1   
    45   21   22 1   
    46   21   45 1   
    47   24   47 1   
    48   25   48 1   
    49   26   27 1   
    50   26   28 1   
    51   28   29 1   
    52   29   49 1   
    53   29   50 1   
    54   29   51 1   
    55   30   52 1   
@<TRIPOS>SUBSTRUCTURE
     1 35H         1 TEMP              0 ****  ****    0 ROOT
