@<TRIPOS>MOLECULE
35I
   66    69     1     0     0
SMALL
bcc


@<TRIPOS>ATOM
      1 O01        -0.1120    0.4610   -0.2420 o         1 35I     -0.574100
      2 C02         0.7650    1.3340   -0.3470 c         1 35I      0.696300
      3 N03         1.8230    1.3430    0.6060 n         1 35I     -0.253800
      4 N04         2.7370    2.3250    0.5590 n2        1 35I     -0.436300
      5 C05         3.4400    2.6280    1.6180 ce        1 35I      0.379800
      6 C06         3.2660    2.0060    2.9280 ca        1 35I     -0.157900
      7 C07         3.8970    2.4780    4.0810 ca        1 35I     -0.099000
      8 C08         3.6290    1.8740    5.3080 ca        1 35I     -0.127000
      9 C09         2.7290    0.8090    5.3860 ca        1 35I     -0.114000
     10 C10         2.0990    0.3320    4.2360 ca        1 35I     -0.119000
     11 C11         2.3740    0.9210    3.0010 ca        1 35I     -0.086300
     12 C12         1.7380    0.3900    1.7370 c3        1 35I      0.135000
     13 C13         2.3910   -0.9690    1.4180 c3        1 35I     -0.091400
     14 C14         1.6340   -1.7270    0.3560 c3        1 35I     -0.120400
     15 C15         2.0770   -3.2110    0.3030 c3        1 35I      0.622900
     16 F16         3.3910   -3.4010   -0.0520 f         1 35I     -0.244300
     17 F17         1.9420   -3.8920    1.4870 f         1 35I     -0.244300
     18 F18         1.3710   -3.9610   -0.6040 f         1 35I     -0.244300
     19 C19         0.7280    2.3910   -1.3850 ce        1 35I     -0.194200
     20 C20         1.0570    2.2470   -2.6700 cf        1 35I     -0.032200
     21 C21         1.6140    1.0680   -3.3190 ca        1 35I     -0.056800
     22 C22         1.0840    0.6460   -4.5540 ca        1 35I      0.089100
     23 O23        -0.0320    1.3060   -5.0400 os        1 35I     -0.325900
     24 C24         0.1520    1.9240   -6.3130 c3        1 35I      0.113700
     25 C25         1.6240   -0.4940   -5.1920 ca        1 35I      0.099100
     26 O26         1.0420   -0.8430   -6.3960 os        1 35I     -0.325900
     27 C27         1.4550   -2.0860   -6.9550 c3        1 35I      0.111700
     28 C28         2.7010   -1.1790   -4.6190 ca        1 35I     -0.165000
     29 C29         3.2420   -0.7420   -3.4090 ca        1 35I     -0.068300
     30 C30         4.3900   -1.4340   -2.7530 c3        1 35I      0.033200
     31 C31         5.0760   -2.4700   -3.5550 ca        1 35I     -0.443900
     32 C32         5.0450   -3.8180   -3.1560 ca        1 35I      0.498200
     33 N33         5.6960   -4.8080   -3.7770 nb        1 35I     -0.780000
     34 C34         6.4670   -4.4310   -4.8760 ca        1 35I      0.898900
     35 N35         7.2600   -5.4140   -5.4760 nv        1 35I     -0.931500
     36 N36         6.5570   -3.1500   -5.3860 nb        1 35I     -0.827000
     37 C37         5.8540   -2.1730   -4.7260 ca        1 35I      0.724200
     38 N38         5.8640   -0.8930   -5.2500 nv        1 35I     -0.959500
     39 C39         2.6870    0.3670   -2.7610 ca        1 35I     -0.151000
     40 H1          4.1970    3.4210    1.4920 h4        1 35I      0.043800
     41 H2          4.5970    3.3240    4.0170 ha        1 35I      0.139000
     42 H3          4.1260    2.2400    6.2190 ha        1 35I      0.138000
     43 H4          2.5150    0.3420    6.3590 ha        1 35I      0.139000
     44 H5          1.3910   -0.5080    4.3020 ha        1 35I      0.142000
     45 H6          0.6350    0.2090    1.9350 h1        1 35I      0.092700
     46 H7          3.4560   -0.8280    1.0990 hc        1 35I      0.066200
     47 H8          2.3990   -1.5680    2.3690 hc        1 35I      0.066200
     48 H9          1.8090   -1.2810   -0.6590 hc        1 35I      0.100200
     49 H10         0.5290   -1.7060    0.5520 hc        1 35I      0.100200
     50 H11         0.3400    3.3510   -1.0030 ha        1 35I      0.155000
     51 H12         0.8780    3.0910   -3.3650 ha        1 35I      0.142000
     52 H13         0.3850    1.1620   -7.0950 h1        1 35I      0.044367
     53 H14         0.9640    2.6890   -6.2590 h1        1 35I      0.044367
     54 H15        -0.8370    2.4070   -6.5120 h1        1 35I      0.044367
     55 H16         1.2930   -2.9210   -6.2320 h1        1 35I      0.048033
     56 H17         0.7880   -2.2000   -7.8470 h1        1 35I      0.048033
     57 H18         2.5260   -2.0370   -7.2680 h1        1 35I      0.048033
     58 H19         3.1300   -2.0630   -5.1140 ha        1 35I      0.155000
     59 H20         4.0040   -1.9040   -1.8010 hc        1 35I      0.056700
     60 H21         5.1430   -0.6550   -2.4380 hc        1 35I      0.056700
     61 H22         4.4530   -4.1220   -2.2680 h4        1 35I      0.035100
     62 H23         7.0210   -6.3580   -5.2830 hn        1 35I      0.427800
     63 H24         7.6090   -5.2190   -6.3850 hn        1 35I      0.427800
     64 H25         6.5380   -0.6540   -5.9360 hn        1 35I      0.431800
     65 H26         5.5040   -0.1690   -4.6780 hn        1 35I      0.431800
     66 H27         3.1110    0.7060   -1.8020 ha        1 35I      0.147000
@<TRIPOS>BOND
     1    1    2 2   
     2    2    3 1   
     3    2   19 1   
     4    3    4 1   
     5    3   12 1   
     6    4    5 2   
     7    5    6 1   
     8    5   40 1   
     9    6    7 ar  
    10    6   11 ar  
    11    7    8 ar  
    12    7   41 1   
    13    8    9 ar  
    14    8   42 1   
    15    9   10 ar  
    16    9   43 1   
    17   10   11 ar  
    18   10   44 1   
    19   11   12 1   
    20   12   13 1   
    21   12   45 1   
    22   13   14 1   
    23   13   46 1   
    24   13   47 1   
    25   14   15 1   
    26   14   48 1   
    27   14   49 1   
    28   15   16 1   
    29   15   17 1   
    30   15   18 1   
    31   19   20 2   
    32   19   50 1   
    33   20   21 1   
    34   20   51 1   
    35   21   22 ar  
    36   21   39 ar  
    37   22   23 1   
    38   22   25 ar  
    39   23   24 1   
    40   24   52 1   
    41   24   53 1   
    42   24   54 1   
    43   25   26 1   
    44   25   28 ar  
    45   26   27 1   
    46   27   55 1   
    47   27   56 1   
    48   27   57 1   
    49   28   29 ar  
    50   28   58 1   
    51   29   30 1   
    52   29   39 ar  
    53   30   31 1   
    54   30   59 1   
    55   30   60 1   
    56   31   32 ar  
    57   31   37 ar  
    58   32   33 ar  
    59   32   61 1   
    60   33   34 ar  
    61   34   35 1   
    62   34   36 ar  
    63   35   62 1   
    64   35   63 1   
    65   36   37 ar  
    66   37   38 1   
    67   38   64 1   
    68   38   65 1   
    69   39   66 1   
@<TRIPOS>SUBSTRUCTURE
     1 35I         1 TEMP              0 ****  ****    0 ROOT
