@<TRIPOS>MOLECULE
35I
   68    71     1     0     0
SMALL
bcc


@<TRIPOS>ATOM
      1 O01         2.2010   -0.2200   -1.5180 o         1 35I     -0.752100
      2 C02         2.2240    0.9260   -0.9910 c         1 35I      0.735300
      3 N03         2.4830    0.9870    0.3860 n         1 35I     -0.221800
      4 N04         2.7390    2.1820    0.9710 n2        1 35I     -0.466300
      5 C05         2.6350    2.3120    2.2660 ce        1 35I      0.444800
      6 C06         2.1900    1.2520    3.1680 ca        1 35I     -0.175900
      7 C07         1.8750    1.4890    4.5070 ca        1 35I     -0.072000
      8 C08         1.3550    0.4530    5.2840 ca        1 35I     -0.109000
      9 C09         1.1380   -0.8050    4.7210 ca        1 35I     -0.094000
     10 C10         1.4610   -1.0470    3.3840 ca        1 35I     -0.134000
     11 C11         2.0100   -0.0270    2.6070 ca        1 35I     -0.101300
     12 C12         2.4110   -0.2690    1.1720 c3        1 35I      0.150000
     13 C13         3.7610   -1.0190    1.1230 c3        1 35I     -0.098400
     14 C14         3.5960   -2.4540    1.5630 c3        1 35I     -0.105400
     15 C15         4.8090   -3.3200    1.1460 c3        1 35I      0.628900
     16 F16         5.2940   -3.0980   -0.1280 f         1 35I     -0.255300
     17 F17         5.9070   -3.2420    1.9490 f         1 35I     -0.255300
     18 F18         4.5290   -4.6730    1.0660 f         1 35I     -0.255300
     19 C19         1.9480    2.1760   -1.7300 ce        1 35I     -0.200200
     20 C20         2.0190    2.3940   -3.0490 cf        1 35I     -0.020200
     21 C21         2.4280    1.5070   -4.1260 ca        1 35I     -0.086800
     22 C22         1.6800    1.5210   -5.3320 ca        1 35I      0.172100
     23 O23         0.5820    2.3280   -5.3140 os        1 35I     -0.308900
     24 C24        -0.0360    2.6920   -6.5540 c3        1 35I      0.118700
     25 C25         2.0810    0.6770   -6.4040 ca        1 35I      0.069100
     26 O26         1.2910    0.6860   -7.5300 os        1 35I     -0.321900
     27 C27         1.9140    0.2770   -8.7510 c3        1 35I      0.105700
     28 C28         3.1950   -0.1520   -6.2650 ca        1 35I     -0.175000
     29 C29         3.9350   -0.1480   -5.0740 ca        1 35I     -0.195300
     30 C30         5.1520   -0.9900   -4.9580 c3        1 35I     -0.012800
     31 C31         5.0360   -2.2140   -4.1250 ca        1 35I     -0.176900
     32 C32         6.2410   -2.9620   -3.9010 ca        1 35I      0.474200
     33 N33         6.3060   -4.0630   -3.1540 nb        1 35I     -0.611000
     34 C34         5.1120   -4.4730   -2.5880 ca        1 35I      0.735900
     35 N35         5.1790   -5.6570   -1.6860 n4        1 35I     -0.824300
     36 N36         3.8980   -3.8820   -2.7410 nb        1 35I     -0.661000
     37 C37         3.8760   -2.7470   -3.5120 ca        1 35I      0.525200
     38 N38         2.5700   -2.0840   -3.6430 n4        1 35I     -0.835300
     39 C39         3.5650    0.7020   -4.0290 ca        1 35I     -0.127000
     40 H1          2.8890    3.3090    2.6770 h4        1 35I      0.068800
     41 H2          2.0250    2.4900    4.9420 ha        1 35I      0.159000
     42 H3          1.1050    0.6330    6.3420 ha        1 35I      0.163000
     43 H4          0.7040   -1.6120    5.3320 ha        1 35I      0.155000
     44 H5          1.2660   -2.0370    2.9460 ha        1 35I      0.128000
     45 H6          1.6260   -0.9180    0.6770 h1        1 35I      0.078700
     46 H7          4.1510   -0.9920    0.0700 hc        1 35I      0.071200
     47 H8          4.5090   -0.5010    1.7790 hc        1 35I      0.071200
     48 H9          3.5060   -2.5200    2.6810 hc        1 35I      0.099700
     49 H10         2.6820   -2.9150    1.1050 hc        1 35I      0.099700
     50 H11         1.6030    3.0250   -1.1030 ha        1 35I      0.184000
     51 H12         1.6980    3.3940   -3.4190 ha        1 35I      0.175000
     52 H13         0.7230    3.0690   -7.2800 h1        1 35I      0.070700
     53 H14        -0.7430    3.5050   -6.2440 h1        1 35I      0.070700
     54 H15        -0.5890    1.8150   -6.9710 h1        1 35I      0.070700
     55 H16         2.0440   -0.8320   -8.7580 h1        1 35I      0.062700
     56 H17         2.8910    0.7960   -8.8970 h1        1 35I      0.062700
     57 H18         1.1730    0.5910   -9.5310 h1        1 35I      0.062700
     58 H19         3.5150   -0.7830   -7.1100 ha        1 35I      0.157000
     59 H20         5.4970   -1.3080   -5.9870 hc        1 35I      0.115200
     60 H21         5.9880   -0.3590   -4.5280 hc        1 35I      0.115200
     61 H22         7.2020   -2.6270   -4.3570 h4        1 35I      0.103100
     62 H23         6.0700   -6.1580   -1.8310 hn        1 35I      0.497800
     63 H24         5.1300   -5.3210   -0.7000 hn        1 35I      0.497800
     64 H25         2.6150   -1.1460   -3.1670 hn        1 35I      0.501133
     65 H26         2.3720   -1.9290   -4.6430 hn        1 35I      0.501133
     66 H27         4.1750    0.7570   -3.1110 ha        1 35I      0.155000
     67 H353        4.3930   -6.2930   -1.8720 hn        1 35I      0.497800
     68 H383        1.8140   -2.6300   -3.2090 hn        1 35I      0.501133
@<TRIPOS>BOND
     1    1    2 2   
     2    2    3 1   
     3    2   19 1   
     4    3    4 1   
     5    3   12 1   
     6    4    5 2   
     7    5    6 1   
     8    5   40 1   
     9    6    7 ar  
    10    6   11 ar  
    11    7    8 ar  
    12    7   41 1   
    13    8    9 ar  
    14    8   42 1   
    15    9   10 ar  
    16    9   43 1   
    17   10   11 ar  
    18   10   44 1   
    19   11   12 1   
    20   12   13 1   
    21   12   45 1   
    22   13   14 1   
    23   13   46 1   
    24   13   47 1   
    25   14   15 1   
    26   14   48 1   
    27   14   49 1   
    28   15   16 1   
    29   15   17 1   
    30   15   18 1   
    31   19   20 2   
    32   19   50 1   
    33   20   21 1   
    34   20   51 1   
    35   21   22 ar  
    36   21   39 ar  
    37   22   23 1   
    38   22   25 ar  
    39   23   24 1   
    40   24   52 1   
    41   24   53 1   
    42   24   54 1   
    43   25   26 1   
    44   25   28 ar  
    45   26   27 1   
    46   27   55 1   
    47   27   56 1   
    48   27   57 1   
    49   28   29 ar  
    50   28   58 1   
    51   29   30 1   
    52   29   39 ar  
    53   30   31 1   
    54   30   59 1   
    55   30   60 1   
    56   31   32 ar  
    57   31   37 ar  
    58   32   33 ar  
    59   32   61 1   
    60   33   34 ar  
    61   34   35 1   
    62   34   36 ar  
    63   35   62 1   
    64   35   63 1   
    65   35   67 1   
    66   36   37 ar  
    67   37   38 1   
    68   38   64 1   
    69   38   65 1   
    70   38   68 1   
    71   39   66 1   
@<TRIPOS>SUBSTRUCTURE
     1 35I         1 TEMP              0 ****  ****    0 ROOT
