@<TRIPOS>MOLECULE
35I
   66    57     1     0     0
SMALL
bcc


@<TRIPOS>ATOM
      1 O01        -0.3350    0.7720    0.7460 o         1 35I     -0.362000
      2 C02         0.6790    1.4420    0.8290 c1        1 35I      0.376000
      3 N03         0.9770    2.1290    2.0460 n2        1 35I     -0.274000
      4 N04         2.0710    3.0630    2.0890 n2        1 35I     -0.010000
      5 C05         2.1640    4.0070    3.1670 c1        1 35I     -0.113000
      6 C06         1.0780    4.0590    4.2280 c1        1 35I     -0.072000
      7 C07         0.9440    5.2530    4.9460 c1        1 35I     -0.114750
      8 C08        -0.2110    5.5180    5.6220 c1        1 35I     -0.114750
      9 C09        -1.2470    4.6110    5.5990 c1        1 35I     -0.114750
     10 C10        -1.1170    3.4260    4.8870 c1        1 35I     -0.114750
     11 C11         0.0560    3.1570    4.2000 c1        1 35I     -0.079000
     12 C12         0.0720    2.0280    3.1690 c3        1 35I      0.052000
     13 C13         0.4200    0.6730    3.9460 c3        1 35I     -0.171000
     14 C14        -0.8270    0.1510    4.6610 c3        1 35I     -0.192000
     15 C15        -0.4480   -0.3270    6.0880 c3        1 35I      0.409000
     16 F16         0.0530    0.6570    6.7540 f         1 35I     -0.172333
     17 F17        -1.5300   -0.7730    6.7080 f         1 35I     -0.172333
     18 F18         0.4430   -1.3050    6.0030 f         1 35I     -0.172333
     19 C19         1.5210    1.7200   -0.4330 c2        1 35I     -0.177000
     20 C20         1.3400    0.9410   -1.5800 c1        1 35I     -0.046000
     21 C21         0.3030   -0.1890   -1.5840 c1        1 35I     -0.051000
     22 C22        -1.0720    0.1370   -1.6570 c2        1 35I      0.045000
     23 O23        -1.5130    1.4590   -1.3090 os        1 35I     -0.212000
     24 C24        -1.8660    2.2840   -2.4490 c3        1 35I     -0.076000
     25 C25        -1.9960   -0.8380   -1.9480 c1        1 35I      0.050000
     26 O26        -3.4030   -0.5320   -1.9020 os        1 35I     -0.207000
     27 C27        -4.1390   -1.0040   -3.0560 c3        1 35I     -0.078000
     28 C28        -1.5800   -2.1460   -2.1710 c1        1 35I     -0.181000
     29 C29        -0.2240   -2.4710   -2.1000 c1        1 35I     -0.054000
     30 C30         0.2340   -3.8880   -2.4010 c2        1 35I     -0.057000
     31 C31         0.8730   -3.9320   -3.8270 c2        1 35I     -0.280000
     32 C32         0.2430   -3.3220   -4.8720 c2        1 35I      0.026000
     33 N33         0.8060   -3.3300   -6.1010 n1        1 35I     -0.249000
     34 C34         1.9940   -3.9410   -6.2980 c1        1 35I      0.174000
     35 N35         2.5450   -4.0340   -7.6420 n2        1 35I     -0.329000
     36 N36         2.6370   -4.5610   -5.2420 n1        1 35I     -0.289000
     37 C37         2.0800   -4.5540   -4.0240 c1        1 35I      0.177000
     38 N38         2.7390   -5.1510   -2.9530 n2        1 35I     -0.329000
     39 C39         0.7130   -1.4870   -1.8050 c2        1 35I     -0.130000
     40 H1          2.9220    4.6500    3.2020 ha        1 35I      0.176000
     41 H2          1.7060    5.9210    4.9640 ha        1 35I      0.138750
     42 H3         -0.3010    6.3340    6.1120 ha        1 35I      0.138750
     43 H4         -2.0810    4.8030    6.0870 ha        1 35I      0.138750
     44 H5         -1.8430    2.7920    4.8710 ha        1 35I      0.138750
     45 H6         -0.8440    1.9420    2.8040 h1        1 35I      0.129000
     46 H7          1.1170    0.8470    4.6000 hc        1 35I      0.107500
     47 H8          0.7310    0.0060    3.3090 hc        1 35I      0.107500
     48 H9         -1.4930    0.8660    4.7180 hc        1 35I      0.133000
     49 H10        -1.2000   -0.6050    4.1570 hc        1 35I      0.133000
     50 H11         2.1660    2.4270   -0.4320 ha        1 35I      0.160000
     51 H12         1.8710    1.1160   -2.3740 ha        1 35I      0.144000
     52 H13        -2.7930    2.0660   -2.7420 h1        1 35I      0.084333
     53 H14        -1.2600    2.1160   -3.1630 h1        1 35I      0.084333
     54 H15        -1.8170    3.2300   -2.1960 h1        1 35I      0.084333
     55 H16        -3.5210   -1.0670   -3.8410 h1        1 35I      0.086000
     56 H17        -4.5180   -1.8970   -2.8620 h1        1 35I      0.086000
     57 H18        -4.8620   -0.3800   -3.2610 h1        1 35I      0.086000
     58 H19        -2.2430   -2.8440   -2.3820 ha        1 35I      0.146000
     59 H20         0.9210   -4.1780   -1.7110 ha        1 35I      0.092000
     60 H21        -0.5590   -4.5110   -2.3690 ha        1 35I      0.092000
     61 H22        -0.5990   -2.8880   -4.7340 h4        1 35I      0.169000
     62 H23         3.3050   -4.5390   -7.7970 hn        1 35I      0.215500
     63 H24         2.1560   -3.5460   -8.3420 hn        1 35I      0.215500
     64 H25         2.3340   -5.2020   -2.1430 hn        1 35I      0.215500
     65 H26         3.5830   -5.4480   -3.0540 hn        1 35I      0.215500
     66 H27         1.6430   -1.7100   -1.7560 ha        1 35I      0.166000
@<TRIPOS>BOND
     1    1    2 1   
     2    2   19 1   
     3    3    4 1   
     4    3   12 1   
     5    4    5 1   
     6    5   40 1   
     7    6   11 1   
     8    7    8 1   
     9    7   41 1   
    10    8   42 1   
    11    9   10 1   
    12    9   43 1   
    13   10   44 1   
    14   11   12 1   
    15   12   13 1   
    16   12   45 1   
    17   13   14 1   
    18   13   46 1   
    19   13   47 1   
    20   14   15 1   
    21   14   48 1   
    22   14   49 1   
    23   15   16 1   
    24   15   17 1   
    25   15   18 1   
    26   19   20 1   
    27   19   50 1   
    28   20   51 1   
    29   21   22 1   
    30   21   39 1   
    31   22   23 1   
    32   22   25 1   
    33   23   24 1   
    34   24   52 1   
    35   24   53 1   
    36   24   54 1   
    37   25   26 1   
    38   26   27 1   
    39   27   55 1   
    40   27   56 1   
    41   27   57 1   
    42   28   29 1   
    43   28   58 1   
    44   29   39 1   
    45   30   31 1   
    46   30   59 1   
    47   30   60 1   
    48   31   32 1   
    49   31   37 1   
    50   32   33 1   
    51   32   61 1   
    52   34   36 1   
    53   35   62 1   
    54   35   63 1   
    55   38   64 1   
    56   38   65 1   
    57   39   66 1   
@<TRIPOS>SUBSTRUCTURE
     1 35I         1 TEMP              0 ****  ****    0 ROOT
