@<TRIPOS>MOLECULE
35I
   66    69     1     0     0
SMALL
bcc


@<TRIPOS>ATOM
      1 O01         1.9480   -1.3720   -1.2390 o         1 35I     -0.601100
      2 C02         1.5890   -0.8710   -0.1550 c         1 35I      0.692300
      3 N03         2.5910   -0.2900    0.6690 n         1 35I     -0.243800
      4 N04         2.2730    0.1610    1.8930 n2        1 35I     -0.437300
      5 C05         3.1930    0.2950    2.8110 ce        1 35I      0.382800
      6 C06         4.5940   -0.0770    2.6340 ca        1 35I     -0.156900
      7 C07         5.5110   -0.1060    3.6870 ca        1 35I     -0.098000
      8 C08         6.8150   -0.5370    3.4520 ca        1 35I     -0.127000
      9 C09         7.2010   -0.9440    2.1740 ca        1 35I     -0.114000
     10 C10         6.2900   -0.9130    1.1180 ca        1 35I     -0.119000
     11 C11         4.9860   -0.4690    1.3410 ca        1 35I     -0.085300
     12 C12         3.9960   -0.3820    0.2040 c3        1 35I      0.135000
     13 C13         4.4020    0.8170   -0.6770 c3        1 35I     -0.092400
     14 C14         3.6670    0.8260   -1.9940 c3        1 35I     -0.114400
     15 C15         4.2610    1.8910   -2.9510 c3        1 35I      0.622900
     16 F16         4.2230    3.1760   -2.4700 f         1 35I     -0.243967
     17 F17         5.5790    1.6880   -3.2800 f         1 35I     -0.243967
     18 F18         3.6150    1.9590   -4.1600 f         1 35I     -0.243967
     19 C19         0.1740   -0.8430    0.2760 ce        1 35I     -0.219200
     20 C20        -0.7230   -1.6390   -0.3320 cf        1 35I     -0.025200
     21 C21        -2.1370   -1.6880    0.0020 ca        1 35I     -0.057800
     22 C22        -2.8990   -2.8080   -0.3870 ca        1 35I      0.095100
     23 O23        -2.2950   -3.7750   -1.1710 os        1 35I     -0.329900
     24 C24        -2.2200   -5.0680   -0.5680 c3        1 35I      0.115700
     25 C25        -4.2770   -2.8640   -0.0730 ca        1 35I      0.096100
     26 O26        -4.9360   -4.0080   -0.4790 os        1 35I     -0.321900
     27 C27        -6.3300   -4.0670   -0.1960 c3        1 35I      0.111700
     28 C28        -4.8880   -1.8070    0.6070 ca        1 35I     -0.193000
     29 C29        -4.1330   -0.6900    0.9810 ca        1 35I     -0.069300
     30 C30        -4.7840    0.4260    1.7320 c3        1 35I      0.034200
     31 C31        -4.5850    1.7580    1.1150 ca        1 35I     -0.431900
     32 C32        -3.8700    2.7640    1.7850 ca        1 35I      0.490200
     33 N33        -3.6850    4.0050    1.3190 nb        1 35I     -0.778000
     34 C34        -4.2660    4.2790    0.0810 ca        1 35I      0.900900
     35 N35        -4.1870    5.5900   -0.3940 nh        1 35I     -0.929500
     36 N36        -4.9560    3.3650   -0.6930 nb        1 35I     -0.818000
     37 C37        -5.1360    2.1150   -0.1620 ca        1 35I      0.715200
     38 N38        -5.9200    1.2020   -0.8630 nh        1 35I     -0.933500
     39 C39        -2.7720   -0.6370    0.6790 ca        1 35I     -0.122000
     40 H1          2.8590    0.7050    3.7800 h4        1 35I      0.044800
     41 H2          5.2000    0.2060    4.6950 ha        1 35I      0.139000
     42 H3          7.5420   -0.5590    4.2780 ha        1 35I      0.138000
     43 H4          8.2310   -1.2900    1.9960 ha        1 35I      0.138000
     44 H5          6.5990   -1.2340    0.1110 ha        1 35I      0.141000
     45 H6          4.0790   -1.3230   -0.4230 h1        1 35I      0.094700
     46 H7          4.2230    1.7810   -0.1350 hc        1 35I      0.067700
     47 H8          5.5060    0.7350   -0.8690 hc        1 35I      0.067700
     48 H9          3.7320   -0.1720   -2.5010 hc        1 35I      0.095700
     49 H10         2.5820    1.0660   -1.8510 hc        1 35I      0.095700
     50 H11        -0.1050   -0.1540    1.0880 ha        1 35I      0.161000
     51 H12        -0.4040   -2.3270   -1.1410 ha        1 35I      0.168000
     52 H13        -1.6330   -5.0210    0.3810 h1        1 35I      0.046700
     53 H14        -3.2420   -5.4750   -0.3780 h1        1 35I      0.046700
     54 H15        -1.6840   -5.6800   -1.3370 h1        1 35I      0.046700
     55 H16        -6.5110   -4.0410    0.9060 h1        1 35I      0.047033
     56 H17        -6.8730   -3.2340   -0.7040 h1        1 35I      0.047033
     57 H18        -6.6370   -5.0560   -0.6240 h1        1 35I      0.047033
     58 H19        -5.9590   -1.8450    0.8560 ha        1 35I      0.144000
     59 H20        -5.8880    0.2260    1.8290 hc        1 35I      0.057700
     60 H21        -4.3630    0.4310    2.7770 hc        1 35I      0.057700
     61 H22        -3.4080    2.5590    2.7710 h4        1 35I      0.021100
     62 H23        -3.4930    6.1720    0.0120 hn        1 35I      0.429300
     63 H24        -4.3850    5.7350   -1.3560 hn        1 35I      0.429300
     64 H25        -6.1390    1.4230   -1.8080 hn        1 35I      0.418800
     65 H26        -5.7110    0.2450   -0.6860 hn        1 35I      0.418800
     66 H27        -2.1930    0.2540    0.9700 ha        1 35I      0.149000
@<TRIPOS>BOND
     1    1    2 2   
     2    2    3 1   
     3    2   19 1   
     4    3    4 1   
     5    3   12 1   
     6    4    5 2   
     7    5    6 1   
     8    5   40 1   
     9    6    7 ar  
    10    6   11 ar  
    11    7    8 ar  
    12    7   41 1   
    13    8    9 ar  
    14    8   42 1   
    15    9   10 ar  
    16    9   43 1   
    17   10   11 ar  
    18   10   44 1   
    19   11   12 1   
    20   12   13 1   
    21   12   45 1   
    22   13   14 1   
    23   13   46 1   
    24   13   47 1   
    25   14   15 1   
    26   14   48 1   
    27   14   49 1   
    28   15   16 1   
    29   15   17 1   
    30   15   18 1   
    31   19   20 2   
    32   19   50 1   
    33   20   21 1   
    34   20   51 1   
    35   21   22 ar  
    36   21   39 ar  
    37   22   23 1   
    38   22   25 ar  
    39   23   24 1   
    40   24   52 1   
    41   24   53 1   
    42   24   54 1   
    43   25   26 1   
    44   25   28 ar  
    45   26   27 1   
    46   27   55 1   
    47   27   56 1   
    48   27   57 1   
    49   28   29 ar  
    50   28   58 1   
    51   29   30 1   
    52   29   39 ar  
    53   30   31 1   
    54   30   59 1   
    55   30   60 1   
    56   31   32 ar  
    57   31   37 ar  
    58   32   33 ar  
    59   32   61 1   
    60   33   34 ar  
    61   34   35 1   
    62   34   36 ar  
    63   35   62 1   
    64   35   63 1   
    65   36   37 ar  
    66   37   38 1   
    67   38   64 1   
    68   38   65 1   
    69   39   66 1   
@<TRIPOS>SUBSTRUCTURE
     1 35I         1 TEMP              0 ****  ****    0 ROOT
