@<TRIPOS>MOLECULE
35I
   66    69     1     0     0
SMALL
bcc


@<TRIPOS>ATOM
      1 O01        -0.1170    0.4630   -0.2500 o         1 35I     -0.574100
      2 C02         0.7640    1.3330   -0.3460 c         1 35I      0.696300
      3 N03         1.8180    1.3310    0.6120 n         1 35I     -0.253800
      4 N04         2.7360    2.3090    0.5760 n2        1 35I     -0.436300
      5 C05         3.4360    2.6030    1.6400 ce        1 35I      0.379800
      6 C06         3.2540    1.9730    2.9450 ca        1 35I     -0.157900
      7 C07         3.8820    2.4340    4.1030 ca        1 35I     -0.099000
      8 C08         3.6060    1.8230    5.3260 ca        1 35I     -0.127000
      9 C09         2.7010    0.7630    5.3930 ca        1 35I     -0.114000
     10 C10         2.0750    0.2950    4.2370 ca        1 35I     -0.119000
     11 C11         2.3570    0.8910    3.0070 ca        1 35I     -0.086300
     12 C12         1.7240    0.3720    1.7370 c3        1 35I      0.135000
     13 C13         2.3720   -0.9890    1.4120 c3        1 35I     -0.091400
     14 C14         1.6170   -1.7360    0.3420 c3        1 35I     -0.120400
     15 C15         2.0540   -3.2220    0.2810 c3        1 35I      0.622900
     16 F16         3.3680   -3.4150   -0.0690 f         1 35I     -0.244300
     17 F17         1.9100   -3.9100    1.4600 f         1 35I     -0.244300
     18 F18         1.3490   -3.9620   -0.6340 f         1 35I     -0.244300
     19 C19         0.7370    2.3960   -1.3760 ce        1 35I     -0.194200
     20 C20         1.0720    2.2590   -2.6610 cf        1 35I     -0.032200
     21 C21         1.6270    1.0820   -3.3140 ca        1 35I     -0.056800
     22 C22         1.1010    0.6680   -4.5540 ca        1 35I      0.089100
     23 O23        -0.0100    1.3350   -5.0410 os        1 35I     -0.325900
     24 C24         0.1820    1.9590   -6.3100 c3        1 35I      0.113700
     25 C25         1.6410   -0.4700   -5.1960 ca        1 35I      0.099100
     26 O26         1.0640   -0.8090   -6.4040 os        1 35I     -0.325900
     27 C27         1.4750   -2.0510   -6.9690 c3        1 35I      0.111700
     28 C28         2.7130   -1.1620   -4.6220 ca        1 35I     -0.165000
     29 C29         3.2500   -0.7330   -3.4070 ca        1 35I     -0.068300
     30 C30         4.3930   -1.4330   -2.7500 c3        1 35I      0.033200
     31 C31         5.0800   -2.4650   -3.5550 ca        1 35I     -0.443900
     32 C32         5.0440   -3.8160   -3.1650 ca        1 35I      0.498200
     33 N33         5.6960   -4.8040   -3.7880 nb        1 35I     -0.780000
     34 C34         6.4730   -4.4220   -4.8810 ca        1 35I      0.898900
     35 N35         7.2670   -5.4020   -5.4830 nh        1 35I     -0.931500
     36 N36         6.5690   -3.1370   -5.3830 nb        1 35I     -0.827000
     37 C37         5.8650   -2.1630   -4.7200 ca        1 35I      0.724200
     38 N38         5.8800   -0.8800   -5.2370 nh        1 35I     -0.959500
     39 C39         2.6960    0.3740   -2.7550 ca        1 35I     -0.151000
     40 H1          4.1970    3.3940    1.5220 h4        1 35I      0.043800
     41 H2          4.5860    3.2780    4.0480 ha        1 35I      0.139000
     42 H3          4.1010    2.1820    6.2410 ha        1 35I      0.138000
     43 H4          2.4820    0.2900    6.3620 ha        1 35I      0.139000
     44 H5          1.3620   -0.5420    4.2950 ha        1 35I      0.142000
     45 H6          0.6200    0.1940    1.9290 h1        1 35I      0.092700
     46 H7          3.4400   -0.8500    1.0990 hc        1 35I      0.066200
     47 H8          2.3740   -1.5940    2.3590 hc        1 35I      0.066200
     48 H9          1.7990   -1.2840   -0.6700 hc        1 35I      0.100200
     49 H10         0.5110   -1.7120    0.5330 hc        1 35I      0.100200
     50 H11         0.3500    3.3550   -0.9910 ha        1 35I      0.155000
     51 H12         0.8990    3.1080   -3.3520 ha        1 35I      0.142000
     52 H13         0.4160    1.2010   -7.0960 h1        1 35I      0.044367
     53 H14        -0.8050    2.4470   -6.5110 h1        1 35I      0.044367
     54 H15         0.9960    2.7210   -6.2480 h1        1 35I      0.044367
     55 H16         1.3070   -2.8900   -6.2510 h1        1 35I      0.048033
     56 H17         2.5480   -2.0040   -7.2770 h1        1 35I      0.048033
     57 H18         0.8110   -2.1580   -7.8650 h1        1 35I      0.048033
     58 H19         3.1420   -2.0440   -5.1210 ha        1 35I      0.155000
     59 H20         4.0010   -1.9080   -1.8030 hc        1 35I      0.056700
     60 H21         5.1460   -0.6580   -2.4260 hc        1 35I      0.056700
     61 H22         4.4460   -4.1240   -2.2820 h4        1 35I      0.035100
     62 H23         7.0250   -6.3470   -5.2980 hn        1 35I      0.427800
     63 H24         7.6210   -5.2030   -6.3890 hn        1 35I      0.427800
     64 H25         5.5190   -0.1580   -4.6620 hn        1 35I      0.431800
     65 H26         6.5580   -0.6380   -5.9180 hn        1 35I      0.431800
     66 H27         3.1160    0.7060   -1.7930 ha        1 35I      0.147000
@<TRIPOS>BOND
     1    1    2 2   
     2    2    3 1   
     3    2   19 1   
     4    3    4 1   
     5    3   12 1   
     6    4    5 2   
     7    5    6 1   
     8    5   40 1   
     9    6    7 ar  
    10    6   11 ar  
    11    7    8 ar  
    12    7   41 1   
    13    8    9 ar  
    14    8   42 1   
    15    9   10 ar  
    16    9   43 1   
    17   10   11 ar  
    18   10   44 1   
    19   11   12 1   
    20   12   13 1   
    21   12   45 1   
    22   13   14 1   
    23   13   46 1   
    24   13   47 1   
    25   14   15 1   
    26   14   48 1   
    27   14   49 1   
    28   15   16 1   
    29   15   17 1   
    30   15   18 1   
    31   19   20 2   
    32   19   50 1   
    33   20   21 1   
    34   20   51 1   
    35   21   22 ar  
    36   21   39 ar  
    37   22   23 1   
    38   22   25 ar  
    39   23   24 1   
    40   24   52 1   
    41   24   53 1   
    42   24   54 1   
    43   25   26 1   
    44   25   28 ar  
    45   26   27 1   
    46   27   55 1   
    47   27   56 1   
    48   27   57 1   
    49   28   29 ar  
    50   28   58 1   
    51   29   30 1   
    52   29   39 ar  
    53   30   31 1   
    54   30   59 1   
    55   30   60 1   
    56   31   32 ar  
    57   31   37 ar  
    58   32   33 ar  
    59   32   61 1   
    60   33   34 ar  
    61   34   35 1   
    62   34   36 ar  
    63   35   62 1   
    64   35   63 1   
    65   36   37 ar  
    66   37   38 1   
    67   38   64 1   
    68   38   65 1   
    69   39   66 1   
@<TRIPOS>SUBSTRUCTURE
     1 35I         1 TEMP              0 ****  ****    0 ROOT
