@<TRIPOS>MOLECULE
35J
   19    19     1     0     0
SMALL
bcc


@<TRIPOS>ATOM
      1 CAJ         0.1970   -0.0940   -0.0690 c         1 35J      0.041200
      2 SAB         1.6900   -0.0660   -0.1030 s         1 35J      0.134600
      3 NAI        -0.6880   -0.0350    1.1220 n4        1 35J     -0.626800
      4 CAG         0.0160    0.0880    2.4460 c3        1 35J      0.172100
      5 CAK        -0.9620    0.0660    3.5620 ca        1 35J     -0.319600
      6 CAE        -1.3880    1.2520    4.1800 ca        1 35J     -0.056000
      7 CAC        -2.2680    1.1700    5.2560 ca        1 35J     -0.232300
      8 CAD        -2.6980   -0.1050    5.6810 ca        1 35J      0.451200
      9 NAH        -2.2960   -1.2530    5.0990 nb        1 35J     -0.638000
     10 CAF        -1.4410   -1.1630    4.0660 ca        1 35J      0.429200
     11 H1         -0.4890   -0.1650   -0.9500 hx        1 35J      0.095200
     12 H3          0.6030    1.0520    2.4390 hx        1 35J      0.113700
     13 H4          0.7420   -0.7720    2.5330 hx        1 35J      0.113700
     14 H5         -1.0220    2.2310    3.8330 ha        1 35J      0.149000
     15 H6         -2.6200    2.0750    5.7740 ha        1 35J      0.175000
     16 H7         -3.3960   -0.2170    6.5340 h4        1 35J      0.057100
     17 H8         -1.1150   -2.1270    3.6330 h4        1 35J      0.028100
     18 H2         -1.3290    0.7640    1.0190 hn        1 35J      0.456800
     19 HAI2       -1.2690   -0.8860    1.1440 hn        1 35J      0.456800
@<TRIPOS>BOND
     1    1    2 2   
     2    1    3 1   
     3    1   11 1   
     4    3    4 1   
     5    3   18 1   
     6    3   19 1   
     7    4    5 1   
     8    4   12 1   
     9    4   13 1   
    10    5    6 ar  
    11    5   10 ar  
    12    6    7 ar  
    13    6   14 1   
    14    7    8 ar  
    15    7   15 1   
    16    8    9 ar  
    17    8   16 1   
    18    9   10 ar  
    19   10   17 1   
@<TRIPOS>SUBSTRUCTURE
     1 35J         1 TEMP              0 ****  ****    0 ROOT
