@<TRIPOS>MOLECULE
35J
   19    19     1     0     0
SMALL
bcc


@<TRIPOS>ATOM
      1 CAJ         0.2090   -0.0850   -0.0620 c         1 35J      0.041200
      2 SAB         1.7030   -0.0700   -0.0910 s         1 35J      0.134600
      3 NAI        -0.6790   -0.0270    1.1250 ny        1 35J     -0.626800
      4 CAG         0.0210    0.0810    2.4530 c3        1 35J      0.172100
      5 CAK        -0.9620    0.0600    3.5640 ca        1 35J     -0.319600
      6 CAE        -1.3800    1.2450    4.1890 ca        1 35J     -0.056000
      7 CAC        -2.2650    1.1640    5.2610 ca        1 35J     -0.232300
      8 CAD        -2.7070   -0.1100    5.6760 ca        1 35J      0.451200
      9 NAH        -2.3130   -1.2580    5.0880 nb        1 35J     -0.638000
     10 CAF        -1.4540   -1.1680    4.0590 ca        1 35J      0.429200
     11 H1         -0.4740   -0.1440   -0.9470 hx        1 35J      0.095200
     12 H3          0.7390   -0.7870    2.5360 hx        1 35J      0.113700
     13 H4          0.6170    1.0390    2.4550 hx        1 35J      0.113700
     14 H5         -1.0040    2.2230    3.8500 ha        1 35J      0.149000
     15 H6         -2.6110    2.0680    5.7830 ha        1 35J      0.175000
     16 H7         -3.4100   -0.2220    6.5260 h4        1 35J      0.057100
     17 H8         -1.1340   -2.1320    3.6210 h4        1 35J      0.028100
     18 H2         -1.2680   -0.8730    1.1390 hn        1 35J      0.456800
     19 HAI2       -1.3130    0.7790    1.0260 hn        1 35J      0.456800
@<TRIPOS>BOND
     1    1    2 2   
     2    1    3 1   
     3    1   11 1   
     4    3    4 1   
     5    3   18 1   
     6    3   19 1   
     7    4    5 1   
     8    4   12 1   
     9    4   13 1   
    10    5    6 ar  
    11    5   10 ar  
    12    6    7 ar  
    13    6   14 1   
    14    7    8 ar  
    15    7   15 1   
    16    8    9 ar  
    17    8   16 1   
    18    9   10 ar  
    19   10   17 1   
@<TRIPOS>SUBSTRUCTURE
     1 35J         1 TEMP              0 ****  ****    0 ROOT
