@<TRIPOS>MOLECULE
35K
   32    33     1     0     0
SMALL
bcc


@<TRIPOS>ATOM
      1 C1          0.2020    0.3730    0.0500 ca        1 35K     -0.112000
      2 N1          1.9680   -0.3820    3.7930 n         1 35K     -0.458100
      3 O1          1.7860   -0.5770    6.0580 o         1 35K     -0.563500
      4 C2          1.5690    0.0780    0.1260 ca        1 35K     -0.076300
      5 N2         -0.7850    0.2240    3.6250 n         1 35K     -0.455100
      6 O2         -0.9630    0.0340    5.8920 o         1 35K     -0.561500
      7 C3          2.1540   -0.1720    1.3660 ca        1 35K     -0.144000
      8 N3          4.6510    1.1620   -3.0070 n4        1 35K     -0.836600
      9 O3          1.6260    2.8480   -4.1520 o         1 35K     -0.752800
     10 C4         -0.5780    0.4240    1.1960 ca        1 35K     -0.135000
     11 O4          3.8470    3.1960   -4.4730 o         1 35K     -0.752800
     12 C5         -0.0090    0.1760    2.4610 ca        1 35K      0.029600
     13 C6          1.3850   -0.1290    2.5450 ca        1 35K      0.028600
     14 C7          1.2380   -0.3470    4.9710 c         1 35K      0.636500
     15 C8         -0.2500   -0.0170    4.8810 c         1 35K      0.636500
     16 C9          2.3860    0.0140   -1.1170 c3        1 35K     -0.041100
     17 C10         2.4380    1.3530   -1.8250 c3        1 35K     -0.095400
     18 C11         3.1680    1.2850   -3.1510 c3        1 35K     -0.078500
     19 C12         2.8340    2.6010   -4.0210 c         1 35K      0.938600
     20 H1         -0.2600    0.5690   -0.9310 ha        1 35K      0.152000
     21 H2          2.9400   -0.5940    3.8340 hn        1 35K      0.337500
     22 H3         -1.7530    0.4450    3.5460 hn        1 35K      0.342500
     23 H4          3.2280   -0.4080    1.4250 ha        1 35K      0.134000
     24 H5          4.9380    1.3500   -2.0490 hn        1 35K      0.443800
     25 H6          5.0590    1.8980   -3.6370 hn        1 35K      0.443800
     26 H9         -1.6510    0.6620    1.1110 ha        1 35K      0.148000
     27 H10         3.4270   -0.3310   -0.8740 hc        1 35K      0.039700
     28 H11         1.9350   -0.7540   -1.8050 hc        1 35K      0.039700
     29 H12         2.8900    2.1310   -1.1540 hc        1 35K      0.090200
     30 H13         1.3920    1.7040   -2.0650 hc        1 35K      0.090200
     31 H14         2.8080    0.4070   -3.7550 hx        1 35K      0.089700
     32 H33         4.9800    0.2450   -3.2890 hn        1 35K      0.443800
@<TRIPOS>BOND
     1    1    4 ar  
     2    1   10 ar  
     3    1   20 1   
     4    2   13 1   
     5    2   14 1   
     6    2   21 1   
     7    3   14 2   
     8    4    7 ar  
     9    4   16 1   
    10    5   12 1   
    11    5   15 1   
    12    5   22 1   
    13    6   15 2   
    14    7   13 ar  
    15    7   23 1   
    16    8   18 1   
    17    8   24 1   
    18    8   25 1   
    19    8   32 1   
    20    9   19 1   
    21   10   12 ar  
    22   10   26 1   
    23   11   19 1   
    24   12   13 ar  
    25   14   15 1   
    26   16   17 1   
    27   16   27 1   
    28   16   28 1   
    29   17   18 1   
    30   17   29 1   
    31   17   30 1   
    32   18   19 1   
    33   18   31 1   
@<TRIPOS>SUBSTRUCTURE
     1 35K         1 TEMP              0 ****  ****    0 ROOT
