@<TRIPOS>MOLECULE
35K
   32    33     1     0     0
SMALL
bcc


@<TRIPOS>ATOM
      1 C1          0.2010    0.3740    0.0570 ca        1 35K     -0.112000
      2 N1          1.9820   -0.3810    3.7930 ns        1 35K     -0.458100
      3 O1          1.8090   -0.5760    6.0580 o         1 35K     -0.563500
      4 C2          1.5680    0.0780    0.1280 ca        1 35K     -0.076300
      5 N2         -0.7710    0.2270    3.6350 ns        1 35K     -0.455100
      6 O2         -0.9400    0.0370    5.9030 o         1 35K     -0.561500
      7 C3          2.1580   -0.1720    1.3650 ca        1 35K     -0.144000
      8 N3          4.6390    1.1590   -3.0190 nz        1 35K     -0.836600
      9 O3          1.6110    2.8490   -4.1510 o         1 35K     -0.752800
     10 C4         -0.5750    0.4270    1.2060 ca        1 35K     -0.135000
     11 O4          3.8310    3.1930   -4.4820 o         1 35K     -0.752800
     12 C5         -0.0000    0.1790    2.4680 ca        1 35K      0.029600
     13 C6          1.3940   -0.1280    2.5470 ca        1 35K      0.028600
     14 C7          1.2570   -0.3450    4.9740 c         1 35K      0.636500
     15 C8         -0.2320   -0.0150    4.8890 c         1 35K      0.636500
     16 C9          2.3800    0.0130   -1.1190 c3        1 35K     -0.041100
     17 C10         2.4310    1.3530   -1.8270 c3        1 35K     -0.095400
     18 C11         3.1550    1.2830   -3.1560 c3        1 35K     -0.078500
     19 C12         2.8190    2.5990   -4.0250 c         1 35K      0.938600
     20 H1         -0.2650    0.5710   -0.9220 ha        1 35K      0.152000
     21 H2          2.9540   -0.5950    3.8300 hn        1 35K      0.337500
     22 H3         -1.7390    0.4500    3.5600 hn        1 35K      0.342500
     23 H4          3.2320   -0.4100    1.4190 ha        1 35K      0.134000
     24 H5          5.0450    1.8940   -3.6500 hn        1 35K      0.443800
     25 H6          4.9650    0.2410   -3.3030 hn        1 35K      0.443800
     26 H9         -1.6470    0.6660    1.1260 ha        1 35K      0.148000
     27 H10         3.4210   -0.3330   -0.8800 hc        1 35K      0.039700
     28 H11         1.9260   -0.7540   -1.8050 hc        1 35K      0.039700
     29 H12         1.3850    1.7040   -2.0630 hc        1 35K      0.090200
     30 H13         2.8870    2.1290   -1.1590 hc        1 35K      0.090200
     31 H14         2.7910    0.4060   -3.7580 hx        1 35K      0.089700
     32 H33         4.9290    1.3460   -2.0620 hn        1 35K      0.443800
@<TRIPOS>BOND
     1    1    4 ar  
     2    1   10 ar  
     3    1   20 1   
     4    2   13 1   
     5    2   14 1   
     6    2   21 1   
     7    3   14 2   
     8    4    7 ar  
     9    4   16 1   
    10    5   12 1   
    11    5   15 1   
    12    5   22 1   
    13    6   15 2   
    14    7   13 ar  
    15    7   23 1   
    16    8   18 1   
    17    8   24 1   
    18    8   25 1   
    19    8   32 1   
    20    9   19 1   
    21   10   12 ar  
    22   10   26 1   
    23   11   19 1   
    24   12   13 ar  
    25   14   15 1   
    26   16   17 1   
    27   16   27 1   
    28   16   28 1   
    29   17   18 1   
    30   17   29 1   
    31   17   30 1   
    32   18   19 1   
    33   18   31 1   
@<TRIPOS>SUBSTRUCTURE
     1 35K         1 TEMP              0 ****  ****    0 ROOT
