@<TRIPOS>MOLECULE
35O
   54    57     1     0     0
SMALL
bcc


@<TRIPOS>ATOM
      1 C4         -0.7530    0.4270    2.0030 c3        1 35O     -0.090400
      2 C1         -0.0640    1.2080    3.1130 c3        1 35O     -0.082400
      3 C2         -0.3400    0.4890    4.4280 c3        1 35O     -0.082400
      4 C3         -1.1860   -0.7370    4.1180 c3        1 35O     -0.090400
      5 C5         -1.7730   -0.4870    2.7130 c3        1 35O      0.065000
      6 N8         -2.0990   -1.7090    1.9730 na        1 35O      0.122400
      7 C11        -3.3380   -2.0210    1.4040 cc        1 35O      0.122300
      8 N13        -4.5410   -1.3140    1.3920 na        1 35O     -0.690600
      9 N9         -1.2030   -2.6800    1.6930 nc        1 35O     -0.472800
     10 C10        -1.8130   -3.6430    0.9610 cd        1 35O      0.402200
     11 C12        -3.1890   -3.2860    0.7380 cd        1 35O     -0.369900
     12 C16        -4.3030   -3.9070    0.0600 c         1 35O      0.761100
     13 O17        -4.3150   -4.9880   -0.5290 o         1 35O     -0.457100
     14 N15        -5.5380   -3.1440    0.1050 nc        1 35O     -0.661100
     15 C14        -5.5850   -2.0020    0.7380 cd        1 35O      0.729100
     16 N18        -6.9210   -1.2950    0.7120 ny        1 35O     -0.729000
     17 C19        -7.7760   -1.6970    1.8880 c3        1 35O      0.042500
     18 C20        -9.2460   -1.4160    1.6080 c3        1 35O     -0.136100
     19 C21        -7.3240   -0.9130    3.1560 c         1 35O      0.647100
     20 O22        -6.5500    0.0610    3.0010 o         1 35O     -0.645100
     21 N23        -7.8270   -1.3460    4.3400 ns        1 35O     -0.401100
     22 C24        -7.5270   -0.7870    5.6120 ca        1 35O     -0.043400
     23 C29        -7.6160   -1.6270    6.7490 ca        1 35O     -0.095500
     24 C28        -7.3660   -1.1190    8.0110 ca        1 35O     -0.164000
     25 C27        -7.0170    0.2400    8.1630 ca        1 35O      0.150100
     26 O30        -6.7870    0.6340    9.4590 os        1 35O     -0.310900
     27 C31        -6.4750    2.0110    9.6620 c3        1 35O      0.107700
     28 C26        -6.9240    1.0750    7.0440 ca        1 35O     -0.164000
     29 C25        -7.1790    0.5640    5.7740 ca        1 35O     -0.095500
     30 H1         -1.2710    1.1060    1.2830 hc        1 35O      0.067200
     31 H2          0.0000   -0.1700    1.4290 hc        1 35O      0.067200
     32 H3          1.0350    1.2710    2.9170 hc        1 35O      0.058200
     33 H4         -0.4550    2.2570    3.1540 hc        1 35O      0.058200
     34 H5          0.6170    0.1840    4.9230 hc        1 35O      0.058200
     35 H6         -0.8790    1.1670    5.1370 hc        1 35O      0.058200
     36 H7         -0.5500   -1.6580    4.1400 hc        1 35O      0.067200
     37 H8         -2.0060   -0.8710    4.8650 hc        1 35O      0.067200
     38 H9         -2.7430    0.0780    2.8290 h1        1 35O      0.050700
     39 H10        -4.7130   -0.5650    2.0350 hn        1 35O      0.495800
     40 H11        -1.2900   -4.5400    0.6140 h4        1 35O      0.082100
     41 H12        -7.4120   -1.5480   -0.1590 hn        1 35O      0.485800
     42 H13        -7.6200   -2.8090    2.0420 hx        1 35O      0.137700
     43 H14        -9.8560   -1.8020    2.4640 hc        1 35O      0.088367
     44 H15        -9.5920   -1.9400    0.6830 hc        1 35O      0.088367
     45 H16        -9.4420   -0.3200    1.5060 hc        1 35O      0.088367
     46 H17        -8.4150   -2.1520    4.3520 hn        1 35O      0.336500
     47 H18        -7.8880   -2.6890    6.6460 ha        1 35O      0.150000
     48 H19        -7.4350   -1.7600    8.9030 ha        1 35O      0.162500
     49 H20        -7.3130    2.6600    9.3090 h1        1 35O      0.055700
     50 H21        -5.5220    2.2770    9.1440 h1        1 35O      0.055700
     51 H22        -6.3570    2.0830   10.7740 h1        1 35O      0.055700
     52 H23        -6.6540    2.1360    7.1510 ha        1 35O      0.162500
     53 H24        -7.0970    1.2340    4.9020 ha        1 35O      0.150000
     54 H182       -6.7760   -0.2720    0.7410 hn        1 35O      0.485800
@<TRIPOS>BOND
     1    1    2 1   
     2    1    5 1   
     3    1   30 1   
     4    1   31 1   
     5    2    3 1   
     6    2   32 1   
     7    2   33 1   
     8    3    4 1   
     9    3   34 1   
    10    3   35 1   
    11    4    5 1   
    12    4   36 1   
    13    4   37 1   
    14    5    6 1   
    15    5   38 1   
    16    6    7 1   
    17    6    9 1   
    18    7    8 1   
    19    7   11 2   
    20    8   15 1   
    21    8   39 1   
    22    9   10 2   
    23   10   11 1   
    24   10   40 1   
    25   11   12 1   
    26   12   13 2   
    27   12   14 1   
    28   14   15 2   
    29   15   16 1   
    30   16   17 1   
    31   16   41 1   
    32   16   54 1   
    33   17   18 1   
    34   17   19 1   
    35   17   42 1   
    36   18   43 1   
    37   18   44 1   
    38   18   45 1   
    39   19   20 2   
    40   19   21 1   
    41   21   22 1   
    42   21   46 1   
    43   22   23 ar  
    44   22   29 ar  
    45   23   24 ar  
    46   23   47 1   
    47   24   25 ar  
    48   24   48 1   
    49   25   26 1   
    50   25   28 ar  
    51   26   27 1   
    52   27   49 1   
    53   27   50 1   
    54   27   51 1   
    55   28   29 ar  
    56   28   52 1   
    57   29   53 1   
@<TRIPOS>SUBSTRUCTURE
     1 35O         1 TEMP              0 ****  ****    0 ROOT
