@<TRIPOS>MOLECULE
35O
   54    57     1     0     0
SMALL
bcc


@<TRIPOS>ATOM
      1 C4         -0.7580    0.4160    1.9870 c3        1 35O     -0.090400
      2 C1         -0.0610    1.1940    3.0940 c3        1 35O     -0.082400
      3 C2         -0.3310    0.4750    4.4090 c3        1 35O     -0.082400
      4 C3         -1.1830   -0.7490    4.1030 c3        1 35O     -0.090400
      5 C5         -1.7760   -0.4960    2.7020 c3        1 35O      0.065000
      6 N8         -2.1100   -1.7160    1.9620 na        1 35O      0.122400
      7 C11        -3.3520   -2.0240    1.3970 cc        1 35O      0.122300
      8 N13        -4.5530   -1.3120    1.3900 na        1 35O     -0.690600
      9 N9         -1.2180   -2.6910    1.6780 nc        1 35O     -0.472800
     10 C10        -1.8340   -3.6500    0.9480 cd        1 35O      0.402200
     11 C12        -3.2100   -3.2890    0.7300 cd        1 35O     -0.369900
     12 C16        -4.3290   -3.9060    0.0560 c         1 35O      0.761100
     13 O17        -4.3460   -4.9860   -0.5340 o         1 35O     -0.457100
     14 N15        -5.5610   -3.1380    0.1060 nc        1 35O     -0.661100
     15 C14        -5.6020   -1.9970    0.7400 cd        1 35O      0.729100
     16 N18        -6.9350   -1.2850    0.7210 n4        1 35O     -0.729000
     17 C19        -7.7870   -1.6860    1.8990 c3        1 35O      0.042500
     18 C20        -9.2570   -1.3990    1.6250 c3        1 35O     -0.136100
     19 C21        -7.3280   -0.9050    3.1660 c         1 35O      0.647100
     20 O22        -6.5510    0.0660    3.0100 o         1 35O     -0.645100
     21 N23        -7.8270   -1.3390    4.3520 n         1 35O     -0.401100
     22 C24        -7.5200   -0.7820    5.6230 ca        1 35O     -0.043400
     23 C29        -7.6070   -1.6230    6.7590 ca        1 35O     -0.095500
     24 C28        -7.3500   -1.1180    8.0210 ca        1 35O     -0.164000
     25 C27        -6.9960    0.2400    8.1740 ca        1 35O      0.150100
     26 O30        -6.7600    0.6320    9.4690 os        1 35O     -0.310900
     27 C31        -6.4420    2.0070    9.6730 c3        1 35O      0.107700
     28 C26        -6.9050    1.0760    7.0550 ca        1 35O     -0.164000
     29 C25        -7.1670    0.5680    5.7850 ca        1 35O     -0.095500
     30 H1         -0.0090   -0.1830    1.4080 hc        1 35O      0.067200
     31 H2         -1.2780    1.0970    1.2700 hc        1 35O      0.067200
     32 H3         -0.4480    2.2440    3.1360 hc        1 35O      0.058200
     33 H4          1.0380    1.2540    2.8910 hc        1 35O      0.058200
     34 H5          0.6270    0.1670    4.8990 hc        1 35O      0.058200
     35 H6         -0.8650    1.1540    5.1220 hc        1 35O      0.058200
     36 H7         -2.0000   -0.8790    4.8550 hc        1 35O      0.067200
     37 H8         -0.5490   -1.6710    4.1220 hc        1 35O      0.067200
     38 H9         -2.7440    0.0720    2.8220 h1        1 35O      0.050700
     39 H10        -4.7200   -0.5640    2.0350 hn        1 35O      0.494800
     40 H11        -1.3160   -4.5490    0.5980 h4        1 35O      0.082100
     41 H12        -7.4300   -1.5360   -0.1500 hn        1 35O      0.485800
     42 H13        -7.6350   -2.7990    2.0500 hx        1 35O      0.137700
     43 H14        -9.8650   -1.7840    2.4830 hc        1 35O      0.088367
     44 H15        -9.6080   -1.9210    0.7000 hc        1 35O      0.088367
     45 H16        -9.4490   -0.3020    1.5250 hc        1 35O      0.088367
     46 H17        -8.4170   -2.1430    4.3650 hn        1 35O      0.336500
     47 H18        -7.8830   -2.6850    6.6560 ha        1 35O      0.150000
     48 H19        -7.4180   -1.7600    8.9130 ha        1 35O      0.162500
     49 H20        -5.4900    2.2700    9.1520 h1        1 35O      0.055700
     50 H21        -7.2790    2.6600    9.3240 h1        1 35O      0.055700
     51 H22        -6.3190    2.0770   10.7840 h1        1 35O      0.055700
     52 H23        -6.6310    2.1360    7.1630 ha        1 35O      0.162500
     53 H24        -7.0850    1.2390    4.9140 ha        1 35O      0.150000
     54 H182       -6.7870   -0.2630    0.7490 hn        1 35O      0.485800
@<TRIPOS>BOND
     1    1    2 1   
     2    1    5 1   
     3    1   30 1   
     4    1   31 1   
     5    2    3 1   
     6    2   32 1   
     7    2   33 1   
     8    3    4 1   
     9    3   34 1   
    10    3   35 1   
    11    4    5 1   
    12    4   36 1   
    13    4   37 1   
    14    5    6 1   
    15    5   38 1   
    16    6    7 1   
    17    6    9 1   
    18    7    8 1   
    19    7   11 2   
    20    8   15 1   
    21    8   39 1   
    22    9   10 2   
    23   10   11 1   
    24   10   40 1   
    25   11   12 1   
    26   12   13 2   
    27   12   14 1   
    28   14   15 2   
    29   15   16 1   
    30   16   17 1   
    31   16   41 1   
    32   16   54 1   
    33   17   18 1   
    34   17   19 1   
    35   17   42 1   
    36   18   43 1   
    37   18   44 1   
    38   18   45 1   
    39   19   20 2   
    40   19   21 1   
    41   21   22 1   
    42   21   46 1   
    43   22   23 ar  
    44   22   29 ar  
    45   23   24 ar  
    46   23   47 1   
    47   24   25 ar  
    48   24   48 1   
    49   25   26 1   
    50   25   28 ar  
    51   26   27 1   
    52   27   49 1   
    53   27   50 1   
    54   27   51 1   
    55   28   29 ar  
    56   28   52 1   
    57   29   53 1   
@<TRIPOS>SUBSTRUCTURE
     1 35O         1 TEMP              0 ****  ****    0 ROOT
