@<TRIPOS>MOLECULE
35P
   44    45     1     0     0
SMALL
bcc


@<TRIPOS>ATOM
      1 C24        -1.9260    0.3080    1.6510 ca        1 35P     -0.149000
      2 C23        -1.0670    0.9790    2.5170 ca        1 35P     -0.107500
      3 C22        -0.9210    0.5470    3.8370 ca        1 35P     -0.128000
      4 C21        -1.6270   -0.5650    4.2940 ca        1 35P     -0.107500
      5 C20        -2.4890   -1.2600    3.4430 ca        1 35P     -0.149000
      6 C19        -2.6330   -0.8080    2.1280 ca        1 35P      0.016100
      7 O1         -3.3870   -1.4850    1.1620 os        1 35P     -0.324900
      8 C2         -4.6750   -1.9070    1.5480 c3        1 35P      0.032400
      9 C3         -5.7300   -0.8750    1.1790 c         1 35P      0.529100
     10 O18        -6.8350   -1.0870    0.7060 o         1 35P     -0.431100
     11 N4         -5.3870    0.5780    1.4330 n4        1 35P     -0.675800
     12 C5         -6.1860    1.1760    2.5610 c3        1 35P      0.005500
     13 C6         -5.8030    2.6320    2.8110 c         1 35P      0.562900
     14 O17        -5.0430    3.2390    2.0600 o         1 35P     -0.518100
     15 C8         -6.0270    0.3310    3.8430 c3        1 35P      0.224600
     16 N7         -7.0580   -0.7030    3.9310 n3        1 35P     -0.781200
     17 S11        -6.1910    1.3190    5.3410 ss        1 35P     -0.392200
     18 C10        -6.9460   -0.0590    6.3070 c3        1 35P      0.130100
     19 C12        -6.0480   -0.3580    7.4770 c3        1 35P     -0.092100
     20 C15        -8.3070    0.4010    6.7660 c3        1 35P     -0.092100
     21 C9         -7.0540   -1.2290    5.3060 c3        1 35P      0.006500
     22 C13        -5.9360   -2.3130    5.5110 c         1 35P      0.915600
     23 O14        -6.0100   -3.0620    6.5070 o         1 35P     -0.827800
     24 O16        -5.0380   -2.3860    4.6100 o         1 35P     -0.827800
     25 H1         -2.0190    0.6120    0.5990 ha        1 35P      0.177000
     26 H2         -0.5000    1.8500    2.1550 ha        1 35P      0.150500
     27 H3         -0.2420    1.0850    4.5160 ha        1 35P      0.143000
     28 H4         -1.5120   -0.9080    5.3350 ha        1 35P      0.150500
     29 H5         -3.0530   -2.1340    3.8270 ha        1 35P      0.177000
     30 H6         -4.7750   -2.1490    2.6560 h1        1 35P      0.166700
     31 H7         -4.8770   -2.8280    0.9290 h1        1 35P      0.166700
     32 H8         -5.5680    1.1330    0.5900 hn        1 35P      0.461300
     33 H9         -7.2750    1.1690    2.2330 hx        1 35P      0.146700
     34 H10        -6.2950    3.0760    3.7080 h4        1 35P      0.094200
     35 H11        -4.9820   -0.1100    3.8840 h2        1 35P      0.098700
     36 H12        -6.8280   -1.4660    3.3120 hn        1 35P      0.359800
     37 H14        -5.0070   -0.5780    7.1330 hc        1 35P      0.054700
     38 H15        -6.0280    0.5050    8.1850 hc        1 35P      0.054700
     39 H16        -6.4240   -1.2690    8.0120 hc        1 35P      0.054700
     40 H17        -8.7730   -0.3870    7.4090 hc        1 35P      0.054700
     41 H18        -8.9790    0.5910    5.8940 hc        1 35P      0.054700
     42 H19        -8.2220    1.3400    7.3660 hc        1 35P      0.054700
     43 H20        -8.0450   -1.7460    5.4530 h1        1 35P      0.097700
     44 H42        -4.3830    0.6590    1.6600 hn        1 35P      0.461300
@<TRIPOS>BOND
     1    1    2 ar  
     2    1    6 ar  
     3    1   25 1   
     4    2    3 ar  
     5    2   26 1   
     6    3    4 ar  
     7    3   27 1   
     8    4    5 ar  
     9    4   28 1   
    10    5    6 ar  
    11    5   29 1   
    12    6    7 1   
    13    7    8 1   
    14    8    9 1   
    15    8   30 1   
    16    8   31 1   
    17    9   10 2   
    18    9   11 1   
    19   11   12 1   
    20   11   32 1   
    21   11   44 1   
    22   12   13 1   
    23   12   15 1   
    24   12   33 1   
    25   13   14 2   
    26   13   34 1   
    27   15   16 1   
    28   15   17 1   
    29   15   35 1   
    30   16   21 1   
    31   16   36 1   
    32   17   18 1   
    33   18   19 1   
    34   18   20 1   
    35   18   21 1   
    36   19   37 1   
    37   19   38 1   
    38   19   39 1   
    39   20   40 1   
    40   20   41 1   
    41   20   42 1   
    42   21   22 1   
    43   21   43 1   
    44   22   23 1   
    45   22   24 1   
@<TRIPOS>SUBSTRUCTURE
     1 35P         1 TEMP              0 ****  ****    0 ROOT
