@<TRIPOS>MOLECULE
35P
   44    45     1     0     0
SMALL
bcc


@<TRIPOS>ATOM
      1 C24        -0.9590   -0.2810    1.2790 ca        1 35P     -0.136500
      2 C23         0.3040   -0.6770    1.7150 ca        1 35P     -0.117500
      3 C22         0.4710   -1.2170    2.9910 ca        1 35P     -0.127000
      4 C21        -0.6240   -1.3610    3.8430 ca        1 35P     -0.117500
      5 C20        -1.8990   -0.9630    3.4360 ca        1 35P     -0.136500
      6 C19        -2.0450   -0.4230    2.1540 ca        1 35P      0.064100
      7 O1         -3.2640    0.1000    1.7060 os        1 35P     -0.384900
      8 C2         -4.3390   -0.8410    1.7340 c3        1 35P      0.033400
      9 C3         -5.6020   -0.0950    1.3680 c         1 35P      0.561100
     10 O18        -6.5560   -0.5310    0.7430 o         1 35P     -0.431100
     11 N4         -5.7050    1.3360    1.8460 n4        1 35P     -0.667800
     12 C5         -6.8350    1.5490    2.8200 c3        1 35P      0.008500
     13 C6         -7.0030    3.0230    3.1780 c         1 35P      0.564900
     14 O17        -6.3970    3.9070    2.5780 o         1 35P     -0.516100
     15 C8         -6.6040    0.6960    4.0800 c3        1 35P      0.213600
     16 N7         -7.2040   -0.6340    3.9550 n3        1 35P     -0.775200
     17 S11        -7.3280    1.4060    5.5720 ss        1 35P     -0.392200
     18 C10        -7.5520   -0.2520    6.3610 c3        1 35P      0.132100
     19 C12        -6.7000   -0.3030    7.6010 c3        1 35P     -0.092100
     20 C15        -9.0160   -0.3970    6.6930 c3        1 35P     -0.092100
     21 C9         -7.1140   -1.2670    5.2830 c3        1 35P      0.005500
     22 C13        -5.6770   -1.8490    5.5400 c         1 35P      0.913600
     23 O14        -5.5270   -2.6930    6.4470 o         1 35P     -0.828800
     24 O16        -4.7520   -1.4430    4.7610 o         1 35P     -0.828800
     25 H1         -1.1070    0.1480    0.2790 ha        1 35P      0.176500
     26 H2          1.1690   -0.5650    1.0450 ha        1 35P      0.144500
     27 H3          1.4700   -1.5330    3.3240 ha        1 35P      0.138000
     28 H4         -0.4920   -1.7910    4.8480 ha        1 35P      0.144500
     29 H5         -2.7640   -1.0880    4.1170 ha        1 35P      0.176500
     30 H6         -4.1680   -1.6450    0.9680 h1        1 35P      0.148700
     31 H7         -4.4620   -1.2930    2.7740 h1        1 35P      0.148700
     32 H8         -5.8460    1.9630    1.0470 hn        1 35P      0.468800
     33 H9         -7.7900    1.2200    2.2970 hx        1 35P      0.147700
     34 H10        -7.7350    3.2010    4.0000 h4        1 35P      0.093200
     35 H11        -5.4910    0.6290    4.2990 h2        1 35P      0.111700
     36 H12        -6.6610   -1.1910    3.3130 hn        1 35P      0.353800
     37 H14        -7.0740    0.4210    8.3630 hc        1 35P      0.054867
     38 H15        -6.7240   -1.3390    8.0280 hc        1 35P      0.054867
     39 H16        -5.6340   -0.0650    7.3590 hc        1 35P      0.054867
     40 H17        -9.3510    0.4360    7.3570 hc        1 35P      0.054867
     41 H18        -9.1850   -1.3650    7.2290 hc        1 35P      0.054867
     42 H19        -9.6370   -0.3900    5.7660 hc        1 35P      0.054867
     43 H20        -7.8320   -2.1350    5.2800 h1        1 35P      0.097700
     44 H42        -4.8160    1.5900    2.3030 hn        1 35P      0.468800
@<TRIPOS>BOND
     1    1    2 ar  
     2    1    6 ar  
     3    1   25 1   
     4    2    3 ar  
     5    2   26 1   
     6    3    4 ar  
     7    3   27 1   
     8    4    5 ar  
     9    4   28 1   
    10    5    6 ar  
    11    5   29 1   
    12    6    7 1   
    13    7    8 1   
    14    8    9 1   
    15    8   30 1   
    16    8   31 1   
    17    9   10 2   
    18    9   11 1   
    19   11   12 1   
    20   11   32 1   
    21   11   44 1   
    22   12   13 1   
    23   12   15 1   
    24   12   33 1   
    25   13   14 2   
    26   13   34 1   
    27   15   16 1   
    28   15   17 1   
    29   15   35 1   
    30   16   21 1   
    31   16   36 1   
    32   17   18 1   
    33   18   19 1   
    34   18   20 1   
    35   18   21 1   
    36   19   37 1   
    37   19   38 1   
    38   19   39 1   
    39   20   40 1   
    40   20   41 1   
    41   20   42 1   
    42   21   22 1   
    43   21   43 1   
    44   22   23 1   
    45   22   24 1   
@<TRIPOS>SUBSTRUCTURE
     1 35P         1 TEMP              0 ****  ****    0 ROOT
