@<TRIPOS>MOLECULE
35P
   44    45     1     0     0
SMALL
bcc


@<TRIPOS>ATOM
      1 C24        -1.6830   -0.8280    1.1760 ca        1 35P     -0.160500
      2 C23        -0.5490   -0.8790    0.3650 ca        1 35P     -0.098000
      3 C22         0.7160   -0.6670    0.9090 ca        1 35P     -0.138000
      4 C21         0.8600   -0.4070    2.2740 ca        1 35P     -0.098000
      5 C20        -0.2570   -0.3580    3.1050 ca        1 35P     -0.160500
      6 C19        -1.5250   -0.5630    2.5400 ca        1 35P      0.073100
      7 O1         -2.5940   -0.4240    3.4250 os        1 35P     -0.322900
      8 C2         -3.7630   -1.1550    3.1160 c3        1 35P      0.025400
      9 C3         -4.7100   -0.3080    2.2780 c         1 35P      0.526100
     10 O18        -5.3880   -0.6590    1.3260 o         1 35P     -0.427100
     11 N4         -4.8310    1.1390    2.7030 ny        1 35P     -0.670800
     12 C5         -6.2030    1.4880    3.2200 c3        1 35P      0.008500
     13 C6         -6.3170    2.9720    3.5590 c         1 35P      0.564900
     14 O17        -5.4310    3.7710    3.2680 o         1 35P     -0.518100
     15 C8         -6.5430    0.6140    4.4420 c3        1 35P      0.213600
     16 N7         -7.1720   -0.6470    4.0470 n7        1 35P     -0.777200
     17 S11        -7.7110    1.4030    5.5660 ss        1 35P     -0.395200
     18 C10        -8.3950   -0.2160    6.1420 c3        1 35P      0.134100
     19 C12        -8.0960   -0.3590    7.6100 c3        1 35P     -0.093100
     20 C15        -9.8800   -0.1940    5.8820 c3        1 35P     -0.093100
     21 C9         -7.6830   -1.2770    5.2770 c3        1 35P     -0.000500
     22 C13        -6.5350   -2.0260    6.0520 c         1 35P      0.912600
     23 O14        -6.8610   -2.8970    6.8840 o         1 35P     -0.820800
     24 O16        -5.3400   -1.7150    5.7400 o         1 35P     -0.820800
     25 H1         -2.6780   -1.0090    0.7450 ha        1 35P      0.146500
     26 H2         -0.6600   -1.0930   -0.7090 ha        1 35P      0.145000
     27 H3          1.6060   -0.7100    0.2630 ha        1 35P      0.144000
     28 H4          1.8610   -0.2470    2.7020 ha        1 35P      0.145000
     29 H5         -0.1630   -0.1650    4.1840 ha        1 35P      0.146500
     30 H6         -3.5580   -2.1090    2.5630 h1        1 35P      0.173700
     31 H7         -4.2500   -1.3830    4.1320 h1        1 35P      0.173700
     32 H8         -4.1410    1.3150    3.4490 hn        1 35P      0.464300
     33 H9         -6.9370    1.2770    2.3770 hx        1 35P      0.146700
     34 H10        -7.2750    3.2420    4.0610 h4        1 35P      0.094200
     35 H11        -5.6070    0.4370    5.0620 h2        1 35P      0.112700
     36 H12        -6.4750   -1.2650    3.6580 hn        1 35P      0.351800
     37 H14        -8.6560    0.4060    8.2000 hc        1 35P      0.054867
     38 H15        -7.0010   -0.2450    7.8040 hc        1 35P      0.054867
     39 H16        -8.3930   -1.3850    7.9530 hc        1 35P      0.054867
     40 H17       -10.3430   -1.1350    6.2710 hc        1 35P      0.054867
     41 H18       -10.3560    0.6740    6.4010 hc        1 35P      0.054867
     42 H19       -10.0910   -0.1190    4.7880 hc        1 35P      0.054867
     43 H20        -8.4330   -2.0540    4.9550 h1        1 35P      0.096700
     44 H42        -4.6190    1.7600    1.9150 hn        1 35P      0.464300
@<TRIPOS>BOND
     1    1    2 ar  
     2    1    6 ar  
     3    1   25 1   
     4    2    3 ar  
     5    2   26 1   
     6    3    4 ar  
     7    3   27 1   
     8    4    5 ar  
     9    4   28 1   
    10    5    6 ar  
    11    5   29 1   
    12    6    7 1   
    13    7    8 1   
    14    8    9 1   
    15    8   30 1   
    16    8   31 1   
    17    9   10 2   
    18    9   11 1   
    19   11   12 1   
    20   11   32 1   
    21   11   44 1   
    22   12   13 1   
    23   12   15 1   
    24   12   33 1   
    25   13   14 2   
    26   13   34 1   
    27   15   16 1   
    28   15   17 1   
    29   15   35 1   
    30   16   21 1   
    31   16   36 1   
    32   17   18 1   
    33   18   19 1   
    34   18   20 1   
    35   18   21 1   
    36   19   37 1   
    37   19   38 1   
    38   19   39 1   
    39   20   40 1   
    40   20   41 1   
    41   20   42 1   
    42   21   22 1   
    43   21   43 1   
    44   22   23 1   
    45   22   24 1   
@<TRIPOS>SUBSTRUCTURE
     1 35P         1 TEMP              0 ****  ****    0 ROOT
