@<TRIPOS>MOLECULE
35Q
   76    75     1     0     0
SMALL
bcc


@<TRIPOS>ATOM
      1 FAD         1.3870    1.9940   -0.4450 f         1 35Q     -0.153667
      2 CBN         2.6690    1.5790   -0.6480 c3        1 35Q      0.442000
      3 FAE         3.3860    2.1450    0.3830 f         1 35Q     -0.153667
      4 FAF         2.6550    0.2420   -0.3450 f         1 35Q     -0.153667
      5 CBI         3.2980    1.9310   -2.0540 c3        1 35Q     -0.176000
      6 CAO         2.2570    2.5370   -2.8910 c1        1 35Q      0.112000
      7 CBJ         2.3610    2.3750   -4.3640 c2        1 35Q      0.228000
      8 OAC         1.8910    3.1660   -5.1880 o         1 35Q     -0.211000
      9 NAZ         2.9670    1.1750   -4.8210 n         1 35Q     -0.326000
     10 CAL         3.8000    0.4720   -3.9970 c2        1 35Q      0.126000
     11 CBG         4.0370    0.8050   -2.6820 c2        1 35Q     -0.342000
     12 CBB         5.0600    0.0090   -1.9810 c2        1 35Q      0.363000
     13 OAB         5.4870   -1.0660   -2.4510 o         1 35Q     -0.357000
     14 NAY         5.6350    0.5180   -0.8050 n         1 35Q     -0.345000
     15 CBF         6.2550   -0.3580    0.1210 c2        1 35Q     -0.087000
     16 CAN         5.4960   -1.2520    0.8460 c2        1 35Q      0.047000
     17 CBH         7.7000   -0.2960    0.3390 c2        1 35Q      0.213000
     18 NBM         8.5880    0.2980   -0.4720 n3        1 35Q     -0.128000
     19 CAV         8.2970    0.8300   -1.8170 c3        1 35Q     -0.075000
     20 CAR         9.3410    0.9940   -2.8360 c1        1 35Q     -0.135000
     21 NBK        10.5730    0.6030   -2.8670 n3        1 35Q     -0.203000
     22 CAA         6.1800    3.9820   -0.7890 c3        1 35Q     -0.279000
     23 CAS        10.4890    1.6020    0.3650 c2        1 35Q     -0.148000
     24 CAW         9.9360    0.4420   -0.0100 c2        1 35Q     -0.153000
     25 CAK         8.2170   -0.9390    1.6010 c3        1 35Q     -0.183000
     26 CAJ         7.3210   -1.8960    2.2670 c2        1 35Q     -0.066000
     27 CBE         6.0310   -2.0770    1.8950 c2        1 35Q     -0.076000
     28 CBD         5.1460   -3.0630    2.5230 c2        1 35Q     -0.088000
     29 CAM         4.3780   -3.8710    1.7800 c2        1 35Q     -0.180000
     30 CAI         5.1240   -3.1240    4.0230 c3        1 35Q      0.015000
     31 CAG         6.3490   -3.5800    4.5940 c1        1 35Q     -0.299000
     32 CAH         7.3900   -3.9580    5.0800 c1        1 35Q      0.004000
     33 CBC         8.5960   -4.3240    5.5200 c1        1 35Q     -0.379000
     34 CAX         9.4270   -4.8670    6.3300 c2        1 35Q     -0.135000
     35 NBL         8.9700   -5.5280    7.6180 n4        1 35Q     -0.044000
     36 CAT         9.4110   -6.9400    7.7420 c3        1 35Q     -0.130000
     37 H1          4.0210    2.7990   -1.8540 hc        1 35Q      0.195000
     38 H2          4.3210   -0.4030   -4.4490 h4        1 35Q      0.196000
     39 H4          5.2260    1.3280   -0.3880 hn        1 35Q      0.235000
     40 H5          4.4060   -1.3350    0.6470 ha        1 35Q      0.180000
     41 H6          7.5520    0.1340   -2.3210 h1        1 35Q      0.164500
     42 H7          7.8250    1.8520   -1.6820 h1        1 35Q      0.164500
     43 H8          6.1900    3.4250   -1.7520 hc        1 35Q      0.070500
     44 H9          5.3480    3.6150   -0.1460 hc        1 35Q      0.070500
     45 H11         7.1480    3.8290   -0.2630 hc        1 35Q      0.070500
     46 H12         6.0400    5.0670   -0.9900 hc        1 35Q      0.070500
     47 H13        11.0980    0.7920   -3.6970 hn        1 35Q      0.212500
     48 H14        11.0700    0.1180   -2.1460 hn        1 35Q      0.212500
     49 H15         9.9630    2.5680    0.3690 ha        1 35Q      0.153000
     50 H16        11.5400    1.6360    0.6930 ha        1 35Q      0.153000
     51 H17        10.4970   -0.5160    0.0120 h4        1 35Q      0.163000
     52 H18         9.1900   -1.4930    1.4000 hc        1 35Q      0.172000
     53 H19         8.4730   -0.1140    2.3350 hc        1 35Q      0.172000
     54 H20         4.3690   -3.8370    0.6820 ha        1 35Q      0.127500
     55 H21         4.2800   -3.7990    4.3480 hc        1 35Q      0.103000
     56 H22         4.8930   -2.0940    4.4230 hc        1 35Q      0.103000
     57 H23         7.7740   -2.4670    3.1040 ha        1 35Q      0.207000
     58 H24        10.5190   -4.9510    6.2590 hx        1 35Q      0.155000
     59 H25         3.7180   -4.6240    2.2310 ha        1 35Q      0.127500
     60 H26         7.9470   -5.5010    7.6500 hn        1 35Q      0.207500
     61 H281        2.8710    0.9090   -5.7790 hn        1 35Q      0.266000
     62 O3         12.4740   -8.7360    8.9080 oh        1 35Q     -0.307000
     63 C27        11.1630   -2.8540    2.0990 c1        1 35Q     -0.241500
     64 C28        10.4920   -3.2440    3.0100 c1        1 35Q     -0.241500
     65 C29        10.8570   -7.0910    8.1910 c3        1 35Q     -0.221000
     66 C30        11.1960   -8.5690    8.3340 c3        1 35Q     -0.019000
     67 H28         9.2750   -7.4260    6.7340 hx        1 35Q      0.123000
     68 H27        11.7900   -2.5400    1.3050 ha        1 35Q      0.238500
     69 H282       13.1250   -8.4280    8.2660 ho        1 35Q      0.203000
     70 H29        11.5500   -6.6170    7.4480 hc        1 35Q      0.104000
     71 H30         9.8910   -3.6020    3.8290 ha        1 35Q      0.238500
     72 H31        11.1350   -9.0810    7.3360 h1        1 35Q      0.094500
     73 H32         8.7390   -7.4640    8.4810 hx        1 35Q      0.123000
     74 H33        11.0230   -6.5840    9.1790 hc        1 35Q      0.104000
     75 H34        10.4960   -9.0730    9.0550 h1        1 35Q      0.094500
     76 HBL2        9.3260   -4.9970    8.4150 hn        1 35Q      0.207500
@<TRIPOS>BOND
     1    1    2 1   
     2    2    3 1   
     3    2    4 1   
     4    2    5 1   
     5    5    6 1   
     6    5   11 1   
     7    5   37 1   
     8    6    7 1   
     9    7    8 1   
    10    7    9 1   
    11    9   10 1   
    12    9   61 1   
    13   10   11 1   
    14   10   38 1   
    15   11   12 1   
    16   12   13 1   
    17   12   14 1   
    18   14   15 1   
    19   14   39 1   
    20   15   16 1   
    21   15   17 1   
    22   16   27 1   
    23   16   40 1   
    24   17   18 1   
    25   17   25 1   
    26   18   19 1   
    27   18   24 1   
    28   19   20 1   
    29   19   41 1   
    30   19   42 1   
    31   20   21 1   
    32   21   47 1   
    33   21   48 1   
    34   22   43 1   
    35   22   44 1   
    36   22   45 1   
    37   22   46 1   
    38   23   24 1   
    39   23   49 1   
    40   23   50 1   
    41   24   51 1   
    42   25   26 1   
    43   25   52 1   
    44   25   53 1   
    45   26   27 1   
    46   26   57 1   
    47   27   28 1   
    48   28   29 1   
    49   28   30 1   
    50   29   54 1   
    51   29   59 1   
    52   30   31 1   
    53   30   55 1   
    54   30   56 1   
    55   31   32 1   
    56   32   33 1   
    57   33   34 1   
    58   34   35 1   
    59   34   58 1   
    60   35   36 1   
    61   35   60 1   
    62   35   76 1   
    63   36   65 1   
    64   36   67 1   
    65   36   73 1   
    66   62   66 1   
    67   62   69 1   
    68   63   64 1   
    69   63   68 1   
    70   64   71 1   
    71   65   66 1   
    72   65   70 1   
    73   65   74 1   
    74   66   72 1   
    75   66   75 1   
@<TRIPOS>SUBSTRUCTURE
     1 35Q         1 TEMP              0 ****  ****    0 ROOT
