@<TRIPOS>MOLECULE
35R
   52    56     1     0     0
SMALL
bcc


@<TRIPOS>ATOM
      1 O1          1.0020   -2.4090   -0.6070 o         1 35R     -0.454100
      2 C2          1.4290   -1.2610   -0.5060 c         1 35R      0.652100
      3 N3          2.7580   -1.1710    0.2650 ny        1 35R     -0.643800
      4 C4          2.7200   -0.1900    1.3520 cx        1 35R     -0.006500
      5 C5          3.1540    1.2460    1.1270 cx        1 35R     -0.104900
      6 C6          4.0040    0.3400    1.9610 cx        1 35R     -0.104900
      7 N7          0.8220   -0.0660   -0.9000 ns        1 35R     -0.318100
      8 C8          0.2970   -0.0400   -2.2000 cc        1 35R     -0.204700
      9 C9         -1.0580   -0.0950   -2.6000 cd        1 35R     -0.054300
     10 N10        -1.0450    0.0290   -3.9840 na        1 35R      0.016400
     11 N12         0.1780    0.1470   -4.4970 nd        1 35R     -0.465800
     12 C13         1.0480    0.1070   -3.4460 cc        1 35R      0.284000
     13 C14         2.4950    0.1790   -3.5300 cc        1 35R      0.394800
     14 N15         3.1810    0.4260   -4.7290 na        1 35R     -0.228300
     15 C16         4.5420    0.4190   -4.4170 ca        1 35R     -0.063200
     16 C17         5.6960    0.6040   -5.1950 ca        1 35R     -0.116000
     17 C18         6.9170    0.5300   -4.5510 ca        1 35R     -0.079000
     18 C19         7.0190    0.2830   -3.1600 ca        1 35R     -0.069300
     19 C20         8.3820    0.1630   -2.5360 c3        1 35R      0.212100
     20 N21         9.2650    1.2790   -2.8430 n3        1 35R     -0.727600
     21 C23        10.6530    0.9770   -2.5070 c3        1 35R      0.130300
     22 C24        11.5860    2.1700   -2.7470 c3        1 35R      0.125900
     23 O25        11.1140    3.3430   -2.0950 os        1 35R     -0.407600
     24 C26         9.7960    3.6850   -2.5040 c3        1 35R      0.125900
     25 C27         8.8160    2.5330   -2.2520 c3        1 35R      0.130300
     26 C28         5.8890    0.1010   -2.3760 ca        1 35R     -0.104000
     27 C29         4.6270    0.1620   -2.9910 ca        1 35R      0.061400
     28 N30         3.3330    0.0160   -2.4670 nd        1 35R     -0.697100
     29 H1          3.5020   -0.9310   -0.4100 hn        1 35R      0.474800
     30 H2          1.8530   -0.3930    2.0230 hx        1 35R      0.145700
     31 H3          3.5250    1.5610    0.1320 hc        1 35R      0.111450
     32 H4          2.5560    2.0410    1.6140 hc        1 35R      0.111450
     33 H5          4.9820    0.0080    1.5640 hc        1 35R      0.111450
     34 H6          4.0310    0.4660    3.0610 hc        1 35R      0.111450
     35 H7          1.3250    0.7780   -0.6730 hn        1 35R      0.330500
     36 H8         -1.9760   -0.2050   -2.0170 h4        1 35R      0.213000
     37 H9         -1.8380    0.0310   -4.5920 hn        1 35R      0.355700
     38 H10         2.7740    0.5600   -5.6200 hn        1 35R      0.334700
     39 H11         5.6290    0.7990   -6.2750 ha        1 35R      0.156000
     40 H12         7.8460    0.6720   -5.1290 ha        1 35R      0.169000
     41 H13         8.2650    0.0200   -1.4190 h1        1 35R      0.043700
     42 H14         8.8600   -0.7750   -2.9460 h1        1 35R      0.043700
     43 H16        10.7570    0.6530   -1.4310 h1        1 35R      0.041200
     44 H17        10.9890    0.1250   -3.1620 h1        1 35R      0.041200
     45 H18        12.5880    1.9750   -2.2800 h1        1 35R      0.060200
     46 H19        11.7020    2.3690   -3.8450 h1        1 35R      0.060200
     47 H20         9.7980    3.9740   -3.5880 h1        1 35R      0.060200
     48 H21         9.5250    4.5690   -1.8690 h1        1 35R      0.060200
     49 H22         8.6650    2.4340   -1.1370 h1        1 35R      0.041200
     50 H23         7.8240    2.7920   -2.7160 h1        1 35R      0.041200
     51 H24         5.9730   -0.0850   -1.2960 ha        1 35R      0.123000
     52 H32         2.9520   -2.1040    0.6540 hn        1 35R      0.474800
@<TRIPOS>BOND
     1    1    2 2   
     2    2    3 1   
     3    2    7 1   
     4    3    4 1   
     5    3   29 1   
     6    3   52 1   
     7    4    5 1   
     8    4    6 1   
     9    4   30 1   
    10    5    6 1   
    11    5   31 1   
    12    5   32 1   
    13    6   33 1   
    14    6   34 1   
    15    7    8 1   
    16    7   35 1   
    17    8    9 2   
    18    8   12 1   
    19    9   10 1   
    20    9   36 1   
    21   10   11 1   
    22   10   37 1   
    23   11   12 2   
    24   12   13 1   
    25   13   14 1   
    26   13   28 2   
    27   14   15 1   
    28   14   38 1   
    29   15   16 ar  
    30   15   27 ar  
    31   16   17 ar  
    32   16   39 1   
    33   17   18 ar  
    34   17   40 1   
    35   18   19 1   
    36   18   26 ar  
    37   19   20 1   
    38   19   41 1   
    39   19   42 1   
    40   20   21 1   
    41   20   25 1   
    42   21   22 1   
    43   21   43 1   
    44   21   44 1   
    45   22   23 1   
    46   22   45 1   
    47   22   46 1   
    48   23   24 1   
    49   24   25 1   
    50   24   47 1   
    51   24   48 1   
    52   25   49 1   
    53   25   50 1   
    54   26   27 ar  
    55   26   51 1   
    56   27   28 1   
@<TRIPOS>SUBSTRUCTURE
     1 35R         1 TEMP              0 ****  ****    0 ROOT
