@<TRIPOS>MOLECULE
35R
   52    56     1     0     0
SMALL
bcc


@<TRIPOS>ATOM
      1 O1          0.9990   -2.4160   -0.6310 o         1 35R     -0.454100
      2 C2          1.4270   -1.2680   -0.5210 c         1 35R      0.652100
      3 N3          2.7550   -1.1840    0.2520 n4        1 35R     -0.643800
      4 C4          2.7170   -0.2100    1.3460 cx        1 35R     -0.006500
      5 C5          3.1510    1.2270    1.1320 cx        1 35R     -0.104900
      6 C6          4.0000    0.3150    1.9600 cx        1 35R     -0.104900
      7 N7          0.8200   -0.0700   -0.9070 n         1 35R     -0.318100
      8 C8          0.2970   -0.0340   -2.2080 cc        1 35R     -0.204700
      9 C9         -1.0590   -0.0860   -2.6090 cd        1 35R     -0.054300
     10 N10        -1.0440    0.0480   -3.9920 na        1 35R      0.016400
     11 N12         0.1790    0.1680   -4.5030 nd        1 35R     -0.465800
     12 C13         1.0480    0.1200   -3.4510 cc        1 35R      0.284000
     13 C14         2.4950    0.1910   -3.5340 cc        1 35R      0.394800
     14 N15         3.1820    0.4450   -4.7310 na        1 35R     -0.228300
     15 C16         4.5440    0.4350   -4.4190 ca        1 35R     -0.063200
     16 C17         5.6970    0.6240   -5.1950 ca        1 35R     -0.116000
     17 C18         6.9190    0.5450   -4.5500 ca        1 35R     -0.079000
     18 C19         7.0190    0.2890   -3.1610 ca        1 35R     -0.069300
     19 C20         8.3820    0.1640   -2.5360 c3        1 35R      0.212100
     20 N21         9.2670    1.2810   -2.8370 n3        1 35R     -0.727600
     21 C23        10.6540    0.9750   -2.5020 c3        1 35R      0.130300
     22 C24        11.5890    2.1690   -2.7350 c3        1 35R      0.125900
     23 O25        11.1170    3.3380   -2.0770 os        1 35R     -0.407600
     24 C26         9.8000    3.6840   -2.4860 c3        1 35R      0.125900
     25 C27         8.8180    2.5320   -2.2400 c3        1 35R      0.130300
     26 C28         5.8890    0.1030   -2.3780 ca        1 35R     -0.104000
     27 C29         4.6270    0.1690   -2.9940 ca        1 35R      0.061400
     28 N30         3.3330    0.0210   -2.4720 nd        1 35R     -0.697100
     29 H1          3.5000   -0.9400   -0.4210 hn        1 35R      0.474800
     30 H2          1.8480   -0.4180    2.0150 hx        1 35R      0.145700
     31 H3          2.5530    2.0190    1.6240 hc        1 35R      0.111450
     32 H4          3.5230    1.5490    0.1390 hc        1 35R      0.111450
     33 H5          4.0260    0.4320    3.0610 hc        1 35R      0.111450
     34 H6          4.9790   -0.0150    1.5620 hc        1 35R      0.111450
     35 H7          1.3230    0.7720   -0.6740 hn        1 35R      0.330500
     36 H8         -1.9760   -0.2000   -2.0270 h4        1 35R      0.213000
     37 H9         -1.8370    0.0540   -4.6000 hn        1 35R      0.355700
     38 H10         2.7760    0.5850   -5.6220 hn        1 35R      0.334700
     39 H11         5.6320    0.8260   -6.2730 ha        1 35R      0.156000
     40 H12         7.8480    0.6900   -5.1280 ha        1 35R      0.169000
     41 H13         8.2640    0.0160   -1.4210 h1        1 35R      0.043700
     42 H14         8.8590   -0.7720   -2.9520 h1        1 35R      0.043700
     43 H16        10.9890    0.1270   -3.1610 h1        1 35R      0.041200
     44 H17        10.7560    0.6460   -1.4270 h1        1 35R      0.041200
     45 H18        11.7060    2.3730   -3.8310 h1        1 35R      0.060200
     46 H19        12.5900    1.9700   -2.2690 h1        1 35R      0.060200
     47 H20         9.8040    3.9790   -3.5680 h1        1 35R      0.060200
     48 H21         9.5290    4.5650   -1.8470 h1        1 35R      0.060200
     49 H22         7.8270    2.7950   -2.7040 h1        1 35R      0.041200
     50 H23         8.6660    2.4280   -1.1260 h1        1 35R      0.041200
     51 H24         5.9720   -0.0890   -1.3000 ha        1 35R      0.123000
     52 H32         2.9490   -2.1200    0.6350 hn        1 35R      0.474800
@<TRIPOS>BOND
     1    1    2 2   
     2    2    3 1   
     3    2    7 1   
     4    3    4 1   
     5    3   29 1   
     6    3   52 1   
     7    4    5 1   
     8    4    6 1   
     9    4   30 1   
    10    5    6 1   
    11    5   31 1   
    12    5   32 1   
    13    6   33 1   
    14    6   34 1   
    15    7    8 1   
    16    7   35 1   
    17    8    9 2   
    18    8   12 1   
    19    9   10 1   
    20    9   36 1   
    21   10   11 1   
    22   10   37 1   
    23   11   12 2   
    24   12   13 1   
    25   13   14 1   
    26   13   28 2   
    27   14   15 1   
    28   14   38 1   
    29   15   16 ar  
    30   15   27 ar  
    31   16   17 ar  
    32   16   39 1   
    33   17   18 ar  
    34   17   40 1   
    35   18   19 1   
    36   18   26 ar  
    37   19   20 1   
    38   19   41 1   
    39   19   42 1   
    40   20   21 1   
    41   20   25 1   
    42   21   22 1   
    43   21   43 1   
    44   21   44 1   
    45   22   23 1   
    46   22   45 1   
    47   22   46 1   
    48   23   24 1   
    49   24   25 1   
    50   24   47 1   
    51   24   48 1   
    52   25   49 1   
    53   25   50 1   
    54   26   27 ar  
    55   26   51 1   
    56   27   28 1   
@<TRIPOS>SUBSTRUCTURE
     1 35R         1 TEMP              0 ****  ****    0 ROOT
