@<TRIPOS>MOLECULE
35S
   69    73     1     0     0
SMALL
bcc


@<TRIPOS>ATOM
      1 Cl1         0.0920   -0.3190    2.5120 cl        1 35S     -0.132400
      2 C9          1.6870   -0.1770    1.9190 ca        1 35S      0.011400
      3 C24         2.7270    0.1610    2.7880 ca        1 35S     -0.137000
      4 C25         4.0300    0.2760    2.3000 ca        1 35S     -0.111500
      5 C27         1.9370   -0.4010    0.5620 ca        1 35S     -0.137000
      6 C28         3.2390   -0.2840    0.0830 ca        1 35S     -0.111500
      7 C6          4.2920    0.0480    0.9450 ca        1 35S     -0.115300
      8 C7          5.6930    0.1420    0.3600 c3        1 35S      0.182000
      9 N2          6.4720    1.2260    0.9310 n         1 35S     -0.458800
     10 C8          6.0430    2.5420    0.4960 c3        1 35S      0.076400
     11 C11         7.6840    1.0300    1.6020 c         1 35S      0.739500
     12 O1          8.4580    1.9830    1.8000 o         1 35S     -0.627500
     13 C12         8.0470   -0.3940    2.0340 c3        1 35S     -0.082000
     14 C13         7.2460   -0.8610    3.2420 c3        1 35S     -0.200400
     15 C14         7.2340    0.1230    4.4290 c         1 35S      0.915600
     16 O2          8.2400    0.1740    5.1850 o         1 35S     -0.838300
     17 O3          6.1740    0.7970    4.6070 o         1 35S     -0.838300
     18 C15         7.7900   -1.2930    0.8260 c3        1 35S     -0.072400
     19 C16         6.3300   -1.2770    0.4030 c3        1 35S     -0.026400
     20 C17         6.1870   -1.9500   -0.9310 ca        1 35S     -0.056300
     21 C18         6.7730   -1.4030   -2.0810 ca        1 35S     -0.126000
     22 C19         6.6510   -2.0480   -3.3090 ca        1 35S     -0.128000
     23 C20         5.9460   -3.2460   -3.4130 ca        1 35S     -0.138000
     24 C21         5.3640   -3.7920   -2.2660 ca        1 35S      0.014400
     25 Cl2         4.5000   -5.2570   -2.3790 cl        1 35S     -0.116400
     26 C22         5.4790   -3.1530   -1.0280 ca        1 35S     -0.119000
     27 C10         6.2350    3.6820    1.5130 c3        1 35S     -0.077400
     28 C23         5.5000    3.4270    2.8010 c3        1 35S     -0.115100
     29 C26         9.5310   -0.4320    2.3800 c3        1 35S     -0.086100
     30 C29         8.3200    2.9540   -2.4480 ca        1 35S      0.443600
     31 C30         7.6800    3.9590   -3.2060 ca        1 35S     -0.262300
     32 C31         6.4750    4.4850   -2.7400 ca        1 35S     -0.097000
     33 C4          5.9450    4.0110   -1.5440 ca        1 35S     -0.257300
     34 C5          6.6490    3.0060   -0.8360 ca        1 35S      0.408600
     35 N1          7.8070    2.4780   -1.2840 nb        1 35S     -0.649000
     36 C1         10.0620    1.0180   -2.6140 cx        1 35S     -0.112400
     37 C2         10.7550    2.1860   -1.9880 cx        1 35S     -0.112400
     38 C3          9.6090    2.4200   -2.9440 cx        1 35S     -0.195000
     39 H1          2.5340    0.3380    3.8570 ha        1 35S      0.144000
     40 H2          4.8460    0.5550    3.0120 ha        1 35S      0.181500
     41 H3          1.1180   -0.6650   -0.1210 ha        1 35S      0.144000
     42 H4          3.4370   -0.4600   -0.9850 ha        1 35S      0.181500
     43 H5          5.5620    0.4040   -0.7420 h1        1 35S      0.038700
     44 H6          4.9230    2.4670    0.3080 h1        1 35S      0.054700
     45 H7          6.1840   -1.0550    2.9500 hc        1 35S      0.033200
     46 H8          7.6910   -1.8260    3.5990 hc        1 35S      0.033200
     47 H10         8.0830   -2.3450    1.0800 hc        1 35S      0.044200
     48 H11         8.4410   -0.9560   -0.0250 hc        1 35S      0.044200
     49 H12         5.7520   -1.8780    1.1650 hc        1 35S      0.078700
     50 H13         7.3350   -0.4570   -2.0070 ha        1 35S      0.156000
     51 H14         7.1140   -1.6090   -4.2060 ha        1 35S      0.131000
     52 H15         5.8510   -3.7540   -4.3830 ha        1 35S      0.137000
     53 H16         5.0130   -3.5930   -0.1320 ha        1 35S      0.153000
     54 H17         5.8420    4.6160    1.0290 hc        1 35S      0.052200
     55 H18         7.3260    3.8390    1.7210 hc        1 35S      0.052200
     56 H19         4.4320    3.1630    2.6070 hc        1 35S      0.052700
     57 H20         5.5290    4.3430    3.4390 hc        1 35S      0.052700
     58 H21         5.9710    2.5840    3.3770 hc        1 35S      0.052700
     59 H22         9.8610   -1.4890    2.5170 hc        1 35S      0.048367
     60 H23         9.6890    0.1280    3.3390 hc        1 35S      0.048367
     61 H24        10.1370    0.0410    1.5720 hc        1 35S      0.048367
     62 H27         5.0020    4.4050   -1.1450 ha        1 35S      0.142000
     63 H28        10.5780    0.4410   -3.4030 hc        1 35S      0.077700
     64 H29         9.4220    0.3750   -1.9820 hc        1 35S      0.077700
     65 H30        10.6000    2.3820   -0.9100 hc        1 35S      0.077700
     66 H31        11.7740    2.4530   -2.3200 hc        1 35S      0.077700
     67 H32         9.8540    2.8090   -3.9540 hc        1 35S      0.071700
     68 H25         8.1260    4.3180   -4.1410 ha        1 35S      0.131000
     69 H26         5.9520    5.2650   -3.3110 ha        1 35S      0.126000
@<TRIPOS>BOND
     1    1    2 1   
     2    2    3 ar  
     3    2    5 ar  
     4    3    4 ar  
     5    3   39 1   
     6    4    7 ar  
     7    4   40 1   
     8    5    6 ar  
     9    5   41 1   
    10    6    7 ar  
    11    6   42 1   
    12    7    8 1   
    13    8    9 1   
    14    8   19 1   
    15    8   43 1   
    16    9   10 1   
    17    9   11 1   
    18   10   27 1   
    19   10   34 1   
    20   10   44 1   
    21   11   12 2   
    22   11   13 1   
    23   13   14 1   
    24   13   18 1   
    25   13   29 1   
    26   14   15 1   
    27   14   45 1   
    28   14   46 1   
    29   15   16 1   
    30   15   17 1   
    31   18   19 1   
    32   18   47 1   
    33   18   48 1   
    34   19   20 1   
    35   19   49 1   
    36   20   21 ar  
    37   20   26 ar  
    38   21   22 ar  
    39   21   50 1   
    40   22   23 ar  
    41   22   51 1   
    42   23   24 ar  
    43   23   52 1   
    44   24   25 1   
    45   24   26 ar  
    46   26   53 1   
    47   27   28 1   
    48   27   54 1   
    49   27   55 1   
    50   28   56 1   
    51   28   57 1   
    52   28   58 1   
    53   29   59 1   
    54   29   60 1   
    55   29   61 1   
    56   30   31 ar  
    57   30   35 ar  
    58   30   38 1   
    59   31   32 ar  
    60   31   68 1   
    61   32   33 ar  
    62   32   69 1   
    63   33   34 ar  
    64   33   62 1   
    65   34   35 ar  
    66   36   37 1   
    67   36   38 1   
    68   36   63 1   
    69   36   64 1   
    70   37   38 1   
    71   37   65 1   
    72   37   66 1   
    73   38   67 1   
@<TRIPOS>SUBSTRUCTURE
     1 35S         1 TEMP              0 ****  ****    0 ROOT
