@<TRIPOS>MOLECULE
35S
   69    73     1     0     0
SMALL
bcc


@<TRIPOS>ATOM
      1 CL1         0.6970   -1.9100   -1.7740 cl        1 35S     -0.040000
      2 C9          2.2320   -1.3500   -1.2890 ca        1 35S     -0.061000
      3 C24         2.4330   -0.9270    0.0280 ca        1 35S     -0.131500
      4 C25         3.6890   -0.4670    0.4180 ca        1 35S     -0.100500
      5 C27         3.2790   -1.3200   -2.2140 ca        1 35S     -0.131500
      6 C28         4.5320   -0.8540   -1.8160 ca        1 35S     -0.100500
      7 C6          4.7440   -0.4260   -0.5010 ca        1 35S     -0.081000
      8 C7          6.1200    0.0490   -0.0810 c3        1 35S      0.081000
      9 N2          6.0820    1.4150    0.4060 n3        1 35S     -0.245000
     10 C8          5.8550    2.6050   -0.4450 c3        1 35S      0.159000
     11 C11         6.7430    1.8090    1.5540 c2        1 35S      0.056000
     12 O1          6.8410    3.1440    1.6190 os        1 35S      0.027000
     13 C12         7.2990    0.8840    2.5970 c3        1 35S      0.046000
     14 C13         6.1940    0.5240    3.5940 c3        1 35S     -0.233000
     15 C14         6.4430   -0.8540    4.2450 c2        1 35S      0.331000
     16 O2          7.2920   -0.9290    5.1760 o         1 35S     -0.573000
     17 O3          5.7810   -1.8360    3.7990 o         1 35S     -0.573000
     18 C15         7.7990   -0.3420    1.8200 c3        1 35S     -0.149000
     19 C16         6.6880   -0.9460    0.9710 c3        1 35S     -0.101000
     20 C17         7.1680   -2.2160    0.3440 ca        1 35S     -0.046000
     21 C18         7.9870   -2.2400   -0.7890 ca        1 35S     -0.137000
     22 C19         8.4110   -3.4560   -1.3260 ca        1 35S     -0.136000
     23 C20         8.0360   -4.6580   -0.7340 ca        1 35S     -0.138000
     24 C21         7.2380   -4.6310    0.4150 ca        1 35S     -0.063000
     25 CL2         6.7920   -6.1020    1.1510 cl        1 35S     -0.033000
     26 C22         6.8070   -3.4230    0.9650 ca        1 35S     -0.095000
     27 C10         6.3270    3.6910    0.4500 c2        1 35S     -0.536000
     28 C23         7.4440    1.9660    6.8070 c3        1 35S     -0.289000
     29 C26         8.4600    1.5260    3.3380 c3        1 35S     -0.215000
     30 C29         6.6520    2.6380   -4.1840 c1        1 35S     -0.175000
     31 C30         8.0760    2.7420   -4.1430 c2        1 35S     -0.223000
     32 C31         8.7470    2.7830   -2.9430 c2        1 35S     -0.082000
     33 C4          8.0030    2.7220   -1.7410 c2        1 35S     -0.190000
     34 C5          6.6190    2.6140   -1.7760 c2        1 35S     -0.058000
     35 N1          5.9780    2.5630   -3.0130 n3        1 35S     -0.031000
     36 C1          3.7530    2.8050   -4.2900 cx        1 35S     -0.199500
     37 C2          3.6170    3.6230   -3.0410 cx        1 35S     -0.199500
     38 C3          4.5440    2.4220   -3.0570 cx        1 35S     -0.054000
     39 H1          1.6110   -0.9640    0.7580 ha        1 35S      0.144500
     40 H2          3.8540   -0.1480    1.4610 ha        1 35S      0.155000
     41 H3          3.1230   -1.6610   -3.2470 ha        1 35S      0.144500
     42 H4          5.3570   -0.8360   -2.5440 ha        1 35S      0.155000
     43 H5          6.7900    0.0430   -0.9970 h1        1 35S      0.091000
     44 H6          4.7460    2.6560   -0.6520 h1        1 35S      0.095000
     45 H7          5.2010    0.5020    3.0810 hc        1 35S      0.082000
     46 H8          6.1590    1.3010    4.4000 hc        1 35S      0.082000
     47 H10         8.6670   -0.0540    1.1730 hc        1 35S      0.107500
     48 H11         8.1480   -1.1110    2.5630 hc        1 35S      0.107500
     49 H12         5.8460   -1.2070    1.6940 hc        1 35S      0.180000
     50 H13         8.3130   -1.3010   -1.2600 ha        1 35S      0.129000
     51 H14         9.0500   -3.4650   -2.2210 ha        1 35S      0.124000
     52 H15         8.3670   -5.6150   -1.1600 ha        1 35S      0.133000
     53 H16         6.2090   -3.3930    1.8990 ha        1 35S      0.205000
     54 H17         6.4230    2.2450    7.1440 hc        1 35S      0.071000
     55 H18         6.5270    4.7330    0.2920 h4        1 35S      0.189000
     56 H19         8.1370    1.9790    7.6750 hc        1 35S      0.071000
     57 H20         7.7930    2.6950    6.0430 hc        1 35S      0.071000
     58 H21         7.4220    0.9420    6.3550 hc        1 35S      0.071000
     59 H22         9.3470    1.6400    2.6730 hc        1 35S      0.090333
     60 H23         8.7210    0.8690    4.2100 hc        1 35S      0.090333
     61 H24         8.1670    2.5320    3.7220 hc        1 35S      0.090333
     62 H27         8.5080    2.7840   -0.7660 ha        1 35S      0.154000
     63 H28         4.2970    3.2280   -5.1550 hc        1 35S      0.120500
     64 H29         2.9290    2.1360   -4.5940 hc        1 35S      0.120500
     65 H30         4.0450    4.6420   -3.0220 hc        1 35S      0.120500
     66 H31         2.6990    3.5480   -2.4320 hc        1 35S      0.120500
     67 H32         4.2280    1.5090   -2.4980 h1        1 35S      0.143000
     68 H25         8.5990    2.7900   -5.1060 ha        1 35S      0.139000
     69 H26         9.8430    2.8640   -2.8880 ha        1 35S      0.123000
@<TRIPOS>BOND
     1    1    2 1   
     2    2    3 1   
     3    2    5 1   
     4    3    4 1   
     5    3   39 1   
     6    4    7 1   
     7    4   40 1   
     8    5    6 1   
     9    5   41 1   
    10    6    7 1   
    11    6   42 1   
    12    7    8 1   
    13    8    9 1   
    14    8   19 1   
    15    8   43 1   
    16    9   10 1   
    17    9   11 1   
    18   10   27 1   
    19   10   34 1   
    20   10   44 1   
    21   11   12 1   
    22   11   13 1   
    23   12   27 1   
    24   13   14 1   
    25   13   18 1   
    26   13   29 1   
    27   14   15 1   
    28   14   45 1   
    29   14   46 1   
    30   15   16 1   
    31   15   17 1   
    32   18   19 1   
    33   18   47 1   
    34   18   48 1   
    35   19   20 1   
    36   19   49 1   
    37   20   21 1   
    38   20   26 1   
    39   21   22 1   
    40   21   50 1   
    41   22   23 1   
    42   22   51 1   
    43   23   24 1   
    44   23   52 1   
    45   24   25 1   
    46   24   26 1   
    47   26   53 1   
    48   27   55 1   
    49   28   54 1   
    50   28   56 1   
    51   28   57 1   
    52   28   58 1   
    53   29   59 1   
    54   29   60 1   
    55   29   61 1   
    56   30   31 1   
    57   30   35 1   
    58   31   32 1   
    59   31   68 1   
    60   32   33 1   
    61   32   69 1   
    62   33   34 1   
    63   33   62 1   
    64   34   35 1   
    65   35   38 1   
    66   36   37 1   
    67   36   38 1   
    68   36   63 1   
    69   36   64 1   
    70   37   38 1   
    71   37   65 1   
    72   37   66 1   
    73   38   67 1   
@<TRIPOS>SUBSTRUCTURE
     1 35S         1 TEMP              0 ****  ****    0 ROOT
