@<TRIPOS>MOLECULE
35S
   69    73     1     0     0
SMALL
bcc


@<TRIPOS>ATOM
      1 CL1         0.1180    0.2730    0.9390 cl        1 35S     -0.129400
      2 C9          1.8220    0.2980    0.8350 ca        1 35S      0.014400
      3 C24         2.5920    0.2960    1.9990 ca        1 35S     -0.136500
      4 C25         3.9850    0.3120    1.9100 ca        1 35S     -0.108500
      5 C27         2.4310    0.3250   -0.4230 ca        1 35S     -0.136500
      6 C28         3.8210    0.3420   -0.5040 ca        1 35S     -0.108500
      7 C6          4.6060    0.3270    0.6560 ca        1 35S     -0.114300
      8 C7          6.1160    0.3040    0.5050 c3        1 35S      0.180000
      9 N2          6.7970    1.2440    1.3770 n         1 35S     -0.473800
     10 C8          6.5990    2.6470    1.0480 c3        1 35S      0.135700
     11 C11         7.7400    0.8690    2.3360 c         1 35S      0.728500
     12 O1          8.4940    1.7350    2.8200 o         1 35S     -0.640500
     13 C12         7.8970   -0.6150    2.6780 c3        1 35S     -0.079000
     14 C13         6.8060   -1.1370    3.6040 c3        1 35S     -0.201400
     15 C14         6.5020   -0.2480    4.8270 c         1 35S      0.915600
     16 O2          7.3190   -0.2320    5.7840 o         1 35S     -0.835300
     17 O3          5.4000    0.3780    4.8130 o         1 35S     -0.835300
     18 C15         7.8880   -1.3710    1.3490 c3        1 35S     -0.073400
     19 C16         6.5820   -1.1790    0.5960 c3        1 35S     -0.031400
     20 C17         6.6970   -1.7810   -0.7730 ca        1 35S     -0.054300
     21 C18         7.5870   -1.2630   -1.7230 ca        1 35S     -0.128000
     22 C19         7.7050   -1.8530   -2.9790 ca        1 35S     -0.127000
     23 C20         6.9380   -2.9690   -3.3100 ca        1 35S     -0.136000
     24 C21         6.0480   -3.4860   -2.3640 ca        1 35S      0.016400
     25 CL2         5.1040   -4.8490   -2.7570 cl        1 35S     -0.112400
     26 C22         5.9230   -2.9010   -1.1010 ca        1 35S     -0.116000
     27 C10         6.3080    3.5570    2.2550 c3        1 35S     -0.086400
     28 C23         5.1080    3.1210    3.0510 c3        1 35S     -0.117100
     29 C26         9.2480   -0.8070    3.3600 c3        1 35S     -0.087100
     30 C29         6.9610    4.5790   -1.3590 c1        1 35S      0.239500
     31 C30         6.6970    4.1310   -2.5740 c2        1 35S     -0.238300
     32 C31         8.3810    2.3540   -2.1090 c2        1 35S     -0.159200
     33 C4          8.3730    2.3260   -0.7670 c2        1 35S     -0.156200
     34 C5          7.8280    3.2660    0.2820 c3        1 35S      0.117700
     35 N1          7.5770    4.6080   -0.2690 n2        1 35S     -0.436600
     36 C1          7.6780    2.8070   -4.5320 cx        1 35S     -0.118400
     37 C2          8.7090    3.8300   -4.1810 cx        1 35S     -0.118400
     38 C3          7.7950    3.2860   -3.0990 cx        1 35S     -0.019600
     39 H1          2.1150    0.2850    2.9920 ha        1 35S      0.144500
     40 H2          4.5830    0.3310    2.8540 ha        1 35S      0.179500
     41 H3          1.8240    0.3330   -1.3390 ha        1 35S      0.144500
     42 H4          4.3010    0.3660   -1.4940 ha        1 35S      0.179500
     43 H5          6.3480    0.6550   -0.5550 h1        1 35S      0.042700
     44 H6          5.7040    2.7050    0.3550 h1        1 35S      0.054700
     45 H7          5.8480   -1.2740    3.0430 hc        1 35S      0.033700
     46 H8          7.1280   -2.1410    3.9840 hc        1 35S      0.033700
     47 H10         8.0360   -2.4650    1.5490 hc        1 35S      0.042200
     48 H11         8.7490   -1.0210    0.7200 hc        1 35S      0.042200
     49 H12         5.7790   -1.7430    1.1570 hc        1 35S      0.082700
     50 H13         8.1950   -0.3770   -1.4740 ha        1 35S      0.143000
     51 H14         8.4070   -1.4370   -3.7160 ha        1 35S      0.129000
     52 H15         7.0320   -3.4350   -4.3020 ha        1 35S      0.138000
     53 H16         5.2160   -3.3170   -0.3660 ha        1 35S      0.155000
     54 H17         6.1310    4.5930    1.8630 hc        1 35S      0.056700
     55 H18         7.2080    3.5940    2.9250 hc        1 35S      0.056700
     56 H19         4.2530    2.8610    2.3810 hc        1 35S      0.051367
     57 H20         5.3470    2.2250    3.6860 hc        1 35S      0.051367
     58 H21         4.7870    3.9480    3.7300 hc        1 35S      0.051367
     59 H22         9.1970   -0.3500    4.3830 hc        1 35S      0.049033
     60 H23         9.4720   -1.8960    3.4560 hc        1 35S      0.049033
     61 H24        10.0600   -0.3150    2.7750 hc        1 35S      0.049033
     62 H27         8.8980    1.4740   -0.2860 ha        1 35S      0.131000
     63 H28         6.7900    3.1130   -5.1140 hc        1 35S      0.071450
     64 H29         7.9970    1.7780   -4.7740 hc        1 35S      0.071450
     65 H30         8.5680    4.8750   -4.5080 hc        1 35S      0.071450
     66 H31         9.7740    3.5380   -4.1650 hc        1 35S      0.071450
     67 H32         8.6460    3.4290    1.0530 h1        1 35S      0.123700
     68 H25         5.7810    4.2860   -3.1460 ha        1 35S      0.158000
     69 H26         8.9220    1.5240   -2.6110 ha        1 35S      0.107000
@<TRIPOS>BOND
     1    1    2 1   
     2    2    3 ar  
     3    2    5 ar  
     4    3    4 ar  
     5    3   39 1   
     6    4    7 ar  
     7    4   40 1   
     8    5    6 ar  
     9    5   41 1   
    10    6    7 ar  
    11    6   42 1   
    12    7    8 1   
    13    8    9 1   
    14    8   19 1   
    15    8   43 1   
    16    9   10 1   
    17    9   11 1   
    18   10   27 1   
    19   10   34 1   
    20   10   44 1   
    21   11   12 2   
    22   11   13 1   
    23   13   14 1   
    24   13   18 1   
    25   13   29 1   
    26   14   15 1   
    27   14   45 1   
    28   14   46 1   
    29   15   16 1   
    30   15   17 1   
    31   18   19 1   
    32   18   47 1   
    33   18   48 1   
    34   19   20 1   
    35   19   49 1   
    36   20   21 ar  
    37   20   26 ar  
    38   21   22 ar  
    39   21   50 1   
    40   22   23 ar  
    41   22   51 1   
    42   23   24 ar  
    43   23   52 1   
    44   24   25 1   
    45   24   26 ar  
    46   26   53 1   
    47   27   28 1   
    48   27   54 1   
    49   27   55 1   
    50   28   56 1   
    51   28   57 1   
    52   28   58 1   
    53   29   59 1   
    54   29   60 1   
    55   29   61 1   
    56   30   31 2   
    57   30   35 2   
    58   31   38 1   
    59   31   68 1   
    60   32   33 2   
    61   32   38 1   
    62   32   69 1   
    63   33   34 1   
    64   33   62 1   
    65   34   35 1   
    66   34   67 1   
    67   36   37 1   
    68   36   38 1   
    69   36   63 1   
    70   36   64 1   
    71   37   38 1   
    72   37   65 1   
    73   37   66 1   
@<TRIPOS>SUBSTRUCTURE
     1 35S         1 TEMP              0 ****  ****    0 ROOT
