@<TRIPOS>MOLECULE
35T
   72    76     1     0     0
SMALL
bcc


@<TRIPOS>ATOM
      1 C17         0.1910   -0.2730    1.5950 ca        1 35T     -0.121000
      2 C16         1.4680   -0.2770    2.1630 ca        1 35T      0.011400
      3 CL2         2.7780   -0.9200    1.2810 cl        1 35T     -0.120400
      4 C15         1.6860    0.2390    3.4430 ca        1 35T     -0.137000
      5 C14         0.6070    0.7630    4.1530 ca        1 35T     -0.126000
      6 C13        -0.6710    0.7700    3.5990 ca        1 35T     -0.120000
      7 C6         -0.8890    0.2530    2.3150 ca        1 35T     -0.062300
      8 C19        -2.2590    0.2120    1.7050 c3        1 35T     -0.024400
      9 C22        -3.0620   -0.9060    2.3520 c3        1 35T     -0.070400
     10 C4         -4.5320   -0.8730    1.9440 c3        1 35T     -0.087000
     11 C21        -4.7130   -1.0760    0.4450 c3        1 35T     -0.203400
     12 C23        -6.1470   -0.7610   -0.0330 c         1 35T      0.914600
     13 O3         -6.9640   -1.7150   -0.1290 o         1 35T     -0.836800
     14 O2         -6.4120    0.4430   -0.3280 o         1 35T     -0.836800
     15 C24        -5.2790   -1.9810    2.6790 c3        1 35T     -0.083100
     16 C5         -5.1020    0.4760    2.3880 c         1 35T      0.727500
     17 O1         -6.2150    0.5520    2.9450 o         1 35T     -0.648500
     18 N1         -4.2950    1.6160    2.3050 n         1 35T     -0.475800
     19 C18        -4.9000    2.9350    2.4780 c3        1 35T      0.203700
     20 C20        -5.4040    3.1610    3.9190 c3        1 35T     -0.359600
     21 C29        -2.9460    1.6090    1.7680 c3        1 35T      0.164000
     22 C7         -2.7830    2.2530    0.4030 ca        1 35T     -0.119300
     23 C8         -1.6150    2.9930    0.1670 ca        1 35T     -0.111000
     24 C9         -1.3750    3.5650   -1.0790 ca        1 35T     -0.138000
     25 C10        -2.3160    3.3980   -2.1000 ca        1 35T      0.012400
     26 CL1        -2.0220    4.0900   -3.6320 cl        1 35T     -0.131400
     27 C11        -3.4890    2.6760   -1.8740 ca        1 35T     -0.138000
     28 C12        -3.7240    2.1090   -0.6200 ca        1 35T     -0.111000
     29 S1         -4.2440    3.1190    5.1740 s6        1 35T      1.457900
     30 O4         -2.9350    2.9460    4.6620 o         1 35T     -0.671800
     31 O5         -4.4220    4.3110    5.9310 o         1 35T     -0.671800
     32 N2         -4.6570    1.8520    6.0890 n3        1 35T     -0.828500
     33 C25        -4.2880    0.4770    5.8240 c3        1 35T      0.227800
     34 C26        -4.7840   -0.3880    6.9940 c3        1 35T     -0.082400
     35 C27        -5.5620    0.5460    7.9130 c3        1 35T     -0.082400
     36 C28        -5.4860    1.9420    7.2720 c3        1 35T      0.227800
     37 C1         -6.7370    4.5400    1.5240 cx        1 35T     -0.135400
     38 C2         -6.0500    3.2000    1.5200 cx        1 35T     -0.134700
     39 C3         -5.8580    4.1550    0.3730 cx        1 35T     -0.135400
     40 H1          0.0340   -0.6790    0.5840 ha        1 35T      0.149000
     41 H2          2.6930    0.2350    3.8830 ha        1 35T      0.136000
     42 H3          0.7670    1.1800    5.1580 ha        1 35T      0.133000
     43 H4         -1.5130    1.2060    4.1690 ha        1 35T      0.175000
     44 H5         -2.1460   -0.0500    0.6110 hc        1 35T      0.075700
     45 H6         -2.9890   -0.8250    3.4700 hc        1 35T      0.042200
     46 H7         -2.6190   -1.8910    2.0520 hc        1 35T      0.042200
     47 H8         -4.4790   -2.1430    0.2020 hc        1 35T      0.037200
     48 H9         -4.0060   -0.4230   -0.1240 hc        1 35T      0.037200
     49 H11        -4.7780   -2.9610    2.4980 hc        1 35T      0.045367
     50 H12        -5.3050   -1.7800    3.7770 hc        1 35T      0.045367
     51 H13        -6.3280   -2.0290    2.2870 hc        1 35T      0.045367
     52 H14        -4.0880    3.7040    2.2870 h1        1 35T      0.056700
     53 H15        -5.8930    4.1750    3.9240 h1        1 35T      0.142700
     54 H16        -6.2570    2.4360    4.0660 h1        1 35T      0.142700
     55 H17        -2.3520    2.2510    2.5010 h1        1 35T      0.083700
     56 H18        -0.8750    3.1220    0.9720 ha        1 35T      0.182500
     57 H19        -0.4550    4.1400   -1.2550 ha        1 35T      0.143000
     58 H20        -4.2340    2.5470   -2.6740 ha        1 35T      0.143000
     59 H21        -4.6810    1.5560   -0.4500 ha        1 35T      0.182500
     60 H22        -3.1690    0.4020    5.7130 h1        1 35T      0.051200
     61 H23        -4.7640    0.1320    4.8590 h1        1 35T      0.051200
     62 H24        -5.4340   -1.2120    6.6100 hc        1 35T      0.048450
     63 H25        -3.9200   -0.8500    7.5290 hc        1 35T      0.048450
     64 H26        -6.6280    0.2230    8.0060 hc        1 35T      0.048450
     65 H27        -5.1160    0.5660    8.9370 hc        1 35T      0.048450
     66 H28        -6.5170    2.2980    6.9910 h1        1 35T      0.051200
     67 H29        -5.0440    2.6910    7.9870 h1        1 35T      0.051200
     68 H30        -6.3910    5.3330    2.2110 hc        1 35T      0.065450
     69 H31        -7.8320    4.5670    1.3850 hc        1 35T      0.065450
     70 H32        -6.6680    2.2900    1.3240 hc        1 35T      0.155700
     71 H33        -4.8860    4.6650    0.2480 hc        1 35T      0.065450
     72 H34        -6.3150    3.8930   -0.5990 hc        1 35T      0.065450
@<TRIPOS>BOND
     1    1    2 ar  
     2    1    7 ar  
     3    1   40 1   
     4    2    3 1   
     5    2    4 ar  
     6    4    5 ar  
     7    4   41 1   
     8    5    6 ar  
     9    5   42 1   
    10    6    7 ar  
    11    6   43 1   
    12    7    8 1   
    13    8    9 1   
    14    8   21 1   
    15    8   44 1   
    16    9   10 1   
    17    9   45 1   
    18    9   46 1   
    19   10   11 1   
    20   10   15 1   
    21   10   16 1   
    22   11   12 1   
    23   11   47 1   
    24   11   48 1   
    25   12   13 1   
    26   12   14 1   
    27   15   49 1   
    28   15   50 1   
    29   15   51 1   
    30   16   17 2   
    31   16   18 1   
    32   18   19 1   
    33   18   21 1   
    34   19   20 1   
    35   19   38 1   
    36   19   52 1   
    37   20   29 1   
    38   20   53 1   
    39   20   54 1   
    40   21   22 1   
    41   21   55 1   
    42   22   23 ar  
    43   22   28 ar  
    44   23   24 ar  
    45   23   56 1   
    46   24   25 ar  
    47   24   57 1   
    48   25   26 1   
    49   25   27 ar  
    50   27   28 ar  
    51   27   58 1   
    52   28   59 1   
    53   29   30 2   
    54   29   31 2   
    55   29   32 1   
    56   32   33 1   
    57   32   36 1   
    58   33   34 1   
    59   33   60 1   
    60   33   61 1   
    61   34   35 1   
    62   34   62 1   
    63   34   63 1   
    64   35   36 1   
    65   35   64 1   
    66   35   65 1   
    67   36   66 1   
    68   36   67 1   
    69   37   38 1   
    70   37   39 1   
    71   37   68 1   
    72   37   69 1   
    73   38   39 1   
    74   38   70 1   
    75   39   71 1   
    76   39   72 1   
@<TRIPOS>SUBSTRUCTURE
     1 35T         1 TEMP              0 ****  ****    0 ROOT
