@<TRIPOS>MOLECULE
35T
   72    76     1     0     0
SMALL
bcc


@<TRIPOS>ATOM
      1 C17         0.1890   -0.2850    1.6150 ca        1 35T     -0.121000
      2 C16         1.4630   -0.2910    2.1880 ca        1 35T      0.011400
      3 Cl2         2.7760   -0.9390    1.3140 cl        1 35T     -0.120400
      4 C15         1.6770    0.2270    3.4680 ca        1 35T     -0.137000
      5 C14         0.5970    0.7550    4.1730 ca        1 35T     -0.126000
      6 C13        -0.6800    0.7640    3.6130 ca        1 35T     -0.120000
      7 C6         -0.8930    0.2450    2.3290 ca        1 35T     -0.062300
      8 C19        -2.2610    0.2070    1.7140 c3        1 35T     -0.024400
      9 C22        -3.0690   -0.9080    2.3590 c3        1 35T     -0.070400
     10 C4         -4.5370   -0.8720    1.9450 c3        1 35T     -0.087000
     11 C21        -4.7120   -1.0780    0.4450 c3        1 35T     -0.203400
     12 C23        -6.1430   -0.7600   -0.0400 c         1 35T      0.914600
     13 O3         -6.9620   -1.7120   -0.1370 o         1 35T     -0.836800
     14 O2         -6.4040    0.4440   -0.3390 o         1 35T     -0.836800
     15 C24        -5.2900   -1.9760    2.6790 c3        1 35T     -0.083100
     16 C5         -5.1060    0.4790    2.3830 c         1 35T      0.727500
     17 O1         -6.2220    0.5600    2.9350 o         1 35T     -0.648500
     18 N1         -4.2960    1.6170    2.3020 n         1 35T     -0.475800
     19 C18        -4.8970    2.9380    2.4690 c3        1 35T      0.203700
     20 C20        -5.4070    3.1680    3.9070 c3        1 35T     -0.359600
     21 C29        -2.9440    1.6050    1.7700 c3        1 35T      0.164000
     22 C7         -2.7730    2.2460    0.4050 ca        1 35T     -0.119300
     23 C8         -1.6030    2.9820    0.1720 ca        1 35T     -0.111000
     24 C9         -1.3550    3.5510   -1.0740 ca        1 35T     -0.138000
     25 C10        -2.2920    3.3840   -2.0990 ca        1 35T      0.012400
     26 Cl1        -1.9900    4.0730   -3.6310 cl        1 35T     -0.131400
     27 C11        -3.4680    2.6660   -1.8770 ca        1 35T     -0.138000
     28 C12        -3.7110    2.1020   -0.6230 ca        1 35T     -0.111000
     29 S1         -4.2530    3.1270    5.1670 s6        1 35T      1.457900
     30 O4         -2.9420    2.9500    4.6600 o         1 35T     -0.671800
     31 O5         -4.4310    4.3210    5.9200 o         1 35T     -0.671800
     32 N2         -4.6730    1.8630    6.0830 n3        1 35T     -0.828500
     33 C25        -4.3070    0.4870    5.8220 c3        1 35T      0.227800
     34 C26        -4.8100   -0.3740    6.9930 c3        1 35T     -0.082400
     35 C27        -5.5870    0.5650    7.9090 c3        1 35T     -0.082400
     36 C28        -5.5030    1.9590    7.2640 c3        1 35T      0.227800
     37 C1         -6.7260    4.5470    1.5030 cx        1 35T     -0.135400
     38 C2         -6.0430    3.2040    1.5060 cx        1 35T     -0.134700
     39 C3         -5.8430    4.1550    0.3570 cx        1 35T     -0.135400
     40 H1          0.0350   -0.6930    0.6040 ha        1 35T      0.149000
     41 H2          2.6830    0.2210    3.9120 ha        1 35T      0.136000
     42 H3          0.7530    1.1740    5.1780 ha        1 35T      0.133000
     43 H4         -1.5220    1.2040    4.1780 ha        1 35T      0.175000
     44 H5         -2.1430   -0.0580    0.6210 hc        1 35T      0.075700
     45 H6         -2.6270   -1.8950    2.0640 hc        1 35T      0.042200
     46 H7         -3.0010   -0.8250    3.4770 hc        1 35T      0.042200
     47 H8         -4.0010   -0.4280   -0.1220 hc        1 35T      0.037200
     48 H9         -4.4800   -2.1460    0.2060 hc        1 35T      0.037200
     49 H11        -5.3210   -1.7730    3.7760 hc        1 35T      0.045367
     50 H12        -6.3380   -2.0220    2.2820 hc        1 35T      0.045367
     51 H13        -4.7910   -2.9580    2.5020 hc        1 35T      0.045367
     52 H14        -4.0830    3.7050    2.2800 h1        1 35T      0.056700
     53 H15        -5.8940    4.1840    3.9070 h1        1 35T      0.142700
     54 H16        -6.2620    2.4460    4.0520 h1        1 35T      0.142700
     55 H17        -2.3520    2.2480    2.5050 h1        1 35T      0.083700
     56 H18        -0.8660    3.1110    0.9800 ha        1 35T      0.182500
     57 H19        -0.4330    4.1230   -1.2470 ha        1 35T      0.143000
     58 H20        -4.2100    2.5370   -2.6790 ha        1 35T      0.143000
     59 H21        -4.6690    1.5520   -0.4550 ha        1 35T      0.182500
     60 H22        -3.1890    0.4080    5.7150 h1        1 35T      0.051200
     61 H23        -4.7820    0.1410    4.8570 h1        1 35T      0.051200
     62 H24        -5.4620   -1.1960    6.6090 hc        1 35T      0.048450
     63 H25        -3.9490   -0.8390    7.5320 hc        1 35T      0.048450
     64 H26        -6.6530    0.2460    8.0000 hc        1 35T      0.048450
     65 H27        -5.1430    0.5850    8.9340 hc        1 35T      0.048450
     66 H28        -6.5330    2.3180    6.9800 h1        1 35T      0.051200
     67 H29        -5.0610    2.7080    7.9790 h1        1 35T      0.051200
     68 H30        -6.3810    5.3400    2.1890 hc        1 35T      0.065450
     69 H31        -7.8200    4.5760    1.3590 hc        1 35T      0.065450
     70 H32        -6.6630    2.2950    1.3090 hc        1 35T      0.155700
     71 H33        -6.2970    3.8920   -0.6160 hc        1 35T      0.065450
     72 H34        -4.8700    4.6620    0.2340 hc        1 35T      0.065450
@<TRIPOS>BOND
     1    1    2 ar  
     2    1    7 ar  
     3    1   40 1   
     4    2    3 1   
     5    2    4 ar  
     6    4    5 ar  
     7    4   41 1   
     8    5    6 ar  
     9    5   42 1   
    10    6    7 ar  
    11    6   43 1   
    12    7    8 1   
    13    8    9 1   
    14    8   21 1   
    15    8   44 1   
    16    9   10 1   
    17    9   45 1   
    18    9   46 1   
    19   10   11 1   
    20   10   15 1   
    21   10   16 1   
    22   11   12 1   
    23   11   47 1   
    24   11   48 1   
    25   12   13 1   
    26   12   14 1   
    27   15   49 1   
    28   15   50 1   
    29   15   51 1   
    30   16   17 2   
    31   16   18 1   
    32   18   19 1   
    33   18   21 1   
    34   19   20 1   
    35   19   38 1   
    36   19   52 1   
    37   20   29 1   
    38   20   53 1   
    39   20   54 1   
    40   21   22 1   
    41   21   55 1   
    42   22   23 ar  
    43   22   28 ar  
    44   23   24 ar  
    45   23   56 1   
    46   24   25 ar  
    47   24   57 1   
    48   25   26 1   
    49   25   27 ar  
    50   27   28 ar  
    51   27   58 1   
    52   28   59 1   
    53   29   30 2   
    54   29   31 2   
    55   29   32 1   
    56   32   33 1   
    57   32   36 1   
    58   33   34 1   
    59   33   60 1   
    60   33   61 1   
    61   34   35 1   
    62   34   62 1   
    63   34   63 1   
    64   35   36 1   
    65   35   64 1   
    66   35   65 1   
    67   36   66 1   
    68   36   67 1   
    69   37   38 1   
    70   37   39 1   
    71   37   68 1   
    72   37   69 1   
    73   38   39 1   
    74   38   70 1   
    75   39   71 1   
    76   39   72 1   
@<TRIPOS>SUBSTRUCTURE
     1 35T         1 TEMP              0 ****  ****    0 ROOT
