@<TRIPOS>MOLECULE
35V
   52    53     1     0     0
SMALL
bcc


@<TRIPOS>ATOM
      1 CAJ         0.0920   -0.0380   -0.0230 ca        1 35V     -0.119000
      2 CAU         1.4840    0.0330    0.0920 ca        1 35V      0.126100
      3 OAC         2.2080    0.0400   -1.0710 oh        1 35V     -0.480100
      4 CAT         2.0810    0.0980    1.3760 ca        1 35V      0.082100
      5 OAB         3.4520    0.1640    1.3930 oh        1 35V     -0.498100
      6 CAF         1.2840    0.0940    2.5230 ca        1 35V     -0.166000
      7 CAH        -0.1030    0.0300    2.3970 ca        1 35V     -0.115000
      8 CAW        -0.6960   -0.0350    1.1340 ca        1 35V     -0.176300
      9 CAZ        -2.1830   -0.1140    0.9970 c3        1 35V      0.193400
     10 OAD        -2.8160   -0.8730    2.0180 oh        1 35V     -0.638800
     11 CAP        -2.7670    1.3150    1.1050 c3        1 35V      0.096800
     12 NAQ        -4.2580    1.3080    1.1310 n4        1 35V     -0.758000
     13 CAM        -4.8260    2.6790    1.2930 c3        1 35V      0.100800
     14 CAO        -6.3560    2.6840    1.3040 c3        1 35V     -0.040100
     15 CAV        -6.8260    4.0800    1.5080 ca        1 35V     -0.135300
     16 CAK        -7.1990    4.8580    0.4000 ca        1 35V     -0.172000
     17 CAY        -7.6530    6.1600    0.5880 ca        1 35V      0.114100
     18 OAR        -8.0310    7.0190   -0.4190 os        1 35V     -0.292900
     19 CAA        -8.1260    6.4570   -1.7250 c3        1 35V      0.107700
     20 CAG        -6.9140    4.6080    2.7930 ca        1 35V     -0.109000
     21 CAI        -7.3640    5.9150    2.9970 ca        1 35V     -0.183000
     22 CAX        -7.7350    6.7020    1.9060 ca        1 35V      0.143100
     23 OAS        -8.1870    7.9940    1.9750 os        1 35V     -0.297900
     24 CAN        -8.3020    8.5500    3.2990 c3        1 35V      0.134400
     25 CAL        -8.8200    9.9570    3.0970 c3        1 35V     -0.007300
     26 SAE        -8.7700   10.7320    4.6870 sh        1 35V     -0.365900
     27 H1         -0.3560   -0.1040   -1.0260 ha        1 35V      0.158000
     28 H2          3.1540    0.0480   -0.8460 ho        1 35V      0.454000
     29 H3          3.7500    0.1570    2.3170 ho        1 35V      0.446000
     30 H4          1.7490    0.1390    3.5200 ha        1 35V      0.156000
     31 H5         -0.7310    0.0260    3.3010 ha        1 35V      0.142000
     32 H6         -2.4620   -0.5680    0.0010 h1        1 35V      0.068700
     33 H7         -2.2230   -1.5940    2.2720 ho        1 35V      0.457000
     34 H8         -2.4180    1.9240    0.2250 hx        1 35V      0.113700
     35 H9         -2.4040    1.7930    2.0590 hx        1 35V      0.113700
     36 H10        -4.6120    0.8890    0.2640 hn        1 35V      0.455800
     37 H12        -4.4460    3.3170    0.4440 hx        1 35V      0.108200
     38 H13        -4.4380    3.1040    2.2630 hx        1 35V      0.108200
     39 H14        -6.7520    2.2790    0.3340 hc        1 35V      0.068200
     40 H15        -6.7400    2.0290    2.1320 hc        1 35V      0.068200
     41 H16        -7.1450    4.4310   -0.6120 ha        1 35V      0.139000
     42 H17        -8.8350    5.5950   -1.7380 h1        1 35V      0.050367
     43 H18        -8.5220    7.3070   -2.3380 h1        1 35V      0.050367
     44 H19        -7.1180    6.1450   -2.0910 h1        1 35V      0.050367
     45 H20        -6.6390    3.9960    3.6660 ha        1 35V      0.132000
     46 H21        -7.4290    6.3080    4.0220 ha        1 35V      0.157000
     47 H22        -7.2910    8.5560    3.7870 h1        1 35V      0.058700
     48 H23        -9.0190    7.9330    3.9010 h1        1 35V      0.058700
     49 H24        -9.8580    9.9320    2.6870 h1        1 35V      0.082700
     50 H25        -8.1780   10.5030    2.3630 h1        1 35V      0.082700
     51 H26        -9.4030   11.8540    4.3850 hs        1 35V      0.221800
     52 HAQ2       -4.5640    0.7080    1.9110 hn        1 35V      0.455800
@<TRIPOS>BOND
     1    1    2 ar  
     2    1    8 ar  
     3    1   27 1   
     4    2    3 1   
     5    2    4 ar  
     6    3   28 1   
     7    4    5 1   
     8    4    6 ar  
     9    5   29 1   
    10    6    7 ar  
    11    6   30 1   
    12    7    8 ar  
    13    7   31 1   
    14    8    9 1   
    15    9   10 1   
    16    9   11 1   
    17    9   32 1   
    18   10   33 1   
    19   11   12 1   
    20   11   34 1   
    21   11   35 1   
    22   12   13 1   
    23   12   36 1   
    24   12   52 1   
    25   13   14 1   
    26   13   37 1   
    27   13   38 1   
    28   14   15 1   
    29   14   39 1   
    30   14   40 1   
    31   15   16 ar  
    32   15   20 ar  
    33   16   17 ar  
    34   16   41 1   
    35   17   18 1   
    36   17   22 ar  
    37   18   19 1   
    38   19   42 1   
    39   19   43 1   
    40   19   44 1   
    41   20   21 ar  
    42   20   45 1   
    43   21   22 ar  
    44   21   46 1   
    45   22   23 1   
    46   23   24 1   
    47   24   25 1   
    48   24   47 1   
    49   24   48 1   
    50   25   26 1   
    51   25   49 1   
    52   25   50 1   
    53   26   51 1   
@<TRIPOS>SUBSTRUCTURE
     1 35V         1 TEMP              0 ****  ****    0 ROOT
