@<TRIPOS>MOLECULE
35V
   52    53     1     0     0
SMALL
bcc


@<TRIPOS>ATOM
      1 CAJ         0.0990   -0.0310   -0.0180 ca        1 35V     -0.119000
      2 CAU         1.4910    0.0400    0.1000 ca        1 35V      0.126100
      3 OAC         2.2170    0.0510   -1.0600 oh        1 35V     -0.480100
      4 CAT         2.0840    0.1020    1.3860 ca        1 35V      0.082100
      5 OAB         3.4550    0.1690    1.4070 oh        1 35V     -0.498100
      6 CAF         1.2840    0.0940    2.5310 ca        1 35V     -0.166000
      7 CAH        -0.1020    0.0300    2.4010 ca        1 35V     -0.115000
      8 CAW        -0.6920   -0.0320    1.1360 ca        1 35V     -0.176300
      9 CAZ        -2.1780   -0.1120    0.9950 c3        1 35V      0.193400
     10 OAD        -2.8140   -0.8730    2.0130 oh        1 35V     -0.638800
     11 CAP        -2.7640    1.3170    1.1040 c3        1 35V      0.096800
     12 NAQ        -4.2550    1.3090    1.1260 n4        1 35V     -0.758000
     13 CAM        -4.8240    2.6790    1.2890 c3        1 35V      0.100800
     14 CAO        -6.3540    2.6830    1.2980 c3        1 35V     -0.040100
     15 CAV        -6.8250    4.0790    1.5030 ca        1 35V     -0.135300
     16 CAK        -7.2090    4.8540    0.3960 ca        1 35V     -0.172000
     17 CAY        -7.6640    6.1550    0.5850 ca        1 35V      0.114100
     18 OAR        -8.0510    7.0110   -0.4200 os        1 35V     -0.292900
     19 CAA        -8.1550    6.4470   -1.7240 c3        1 35V      0.107700
     20 CAG        -6.9040    4.6090    2.7880 ca        1 35V     -0.109000
     21 CAI        -7.3560    5.9160    2.9920 ca        1 35V     -0.183000
     22 CAX        -7.7370    6.6990    1.9030 ca        1 35V      0.143100
     23 OAS        -8.1910    7.9910    1.9730 os        1 35V     -0.297900
     24 CAN        -8.2960    8.5500    3.2960 c3        1 35V      0.134400
     25 CAL        -8.8180    9.9550    3.0960 c3        1 35V     -0.007300
     26 SAE        -8.7540   10.7340    4.6840 sh        1 35V     -0.365900
     27 H1         -0.3460   -0.0950   -1.0220 ha        1 35V      0.158000
     28 H2          3.1620    0.0590   -0.8330 ho        1 35V      0.454000
     29 H3          3.7500    0.1590    2.3310 ho        1 35V      0.446000
     30 H4          1.7460    0.1370    3.5290 ha        1 35V      0.156000
     31 H5         -0.7330    0.0230    3.3040 ha        1 35V      0.142000
     32 H6         -2.4550   -0.5640   -0.0020 h1        1 35V      0.068700
     33 H7         -2.2220   -1.5940    2.2660 ho        1 35V      0.457000
     34 H8         -2.4040    1.7930    2.0600 hx        1 35V      0.113700
     35 H9         -2.4140    1.9280    0.2260 hx        1 35V      0.113700
     36 H10        -4.6070    0.8910    0.2590 hn        1 35V      0.455800
     37 H12        -4.4440    3.3180    0.4410 hx        1 35V      0.108200
     38 H13        -4.4380    3.1040    2.2600 hx        1 35V      0.108200
     39 H14        -6.7390    2.0270    2.1250 hc        1 35V      0.068200
     40 H15        -6.7490    2.2790    0.3280 hc        1 35V      0.068200
     41 H16        -7.1610    4.4250   -0.6150 ha        1 35V      0.139000
     42 H17        -7.1490    6.1370   -2.0970 h1        1 35V      0.050367
     43 H18        -8.5580    7.2950   -2.3360 h1        1 35V      0.050367
     44 H19        -8.8630    5.5830   -1.7300 h1        1 35V      0.050367
     45 H20        -6.6220    4.0000    3.6590 ha        1 35V      0.131000
     46 H21        -7.4140    6.3110    4.0170 ha        1 35V      0.157000
     47 H22        -7.2810    8.5590    3.7760 h1        1 35V      0.058700
     48 H23        -9.0070    7.9330    3.9060 h1        1 35V      0.058700
     49 H24        -9.8600    9.9280    2.6960 h1        1 35V      0.082700
     50 H25        -8.1840   10.5000    2.3550 h1        1 35V      0.082700
     51 H26        -9.3920   11.8550    4.3850 hs        1 35V      0.221800
     52 HAQ2       -4.5630    0.7080    1.9050 hn        1 35V      0.455800
@<TRIPOS>BOND
     1    1    2 ar  
     2    1    8 ar  
     3    1   27 1   
     4    2    3 1   
     5    2    4 ar  
     6    3   28 1   
     7    4    5 1   
     8    4    6 ar  
     9    5   29 1   
    10    6    7 ar  
    11    6   30 1   
    12    7    8 ar  
    13    7   31 1   
    14    8    9 1   
    15    9   10 1   
    16    9   11 1   
    17    9   32 1   
    18   10   33 1   
    19   11   12 1   
    20   11   34 1   
    21   11   35 1   
    22   12   13 1   
    23   12   36 1   
    24   12   52 1   
    25   13   14 1   
    26   13   37 1   
    27   13   38 1   
    28   14   15 1   
    29   14   39 1   
    30   14   40 1   
    31   15   16 ar  
    32   15   20 ar  
    33   16   17 ar  
    34   16   41 1   
    35   17   18 1   
    36   17   22 ar  
    37   18   19 1   
    38   19   42 1   
    39   19   43 1   
    40   19   44 1   
    41   20   21 ar  
    42   20   45 1   
    43   21   22 ar  
    44   21   46 1   
    45   22   23 1   
    46   23   24 1   
    47   24   25 1   
    48   24   47 1   
    49   24   48 1   
    50   25   26 1   
    51   25   49 1   
    52   25   50 1   
    53   26   51 1   
@<TRIPOS>SUBSTRUCTURE
     1 35V         1 TEMP              0 ****  ****    0 ROOT
