@<TRIPOS>MOLECULE
35V
   52    53     1     0     0
SMALL
bcc


@<TRIPOS>ATOM
      1 CAJ         0.0970   -0.0360   -0.0150 ca        1 35V     -0.119000
      2 CAU         1.4890    0.0350    0.1020 ca        1 35V      0.126100
      3 OAC         2.2140    0.0430   -1.0590 oh        1 35V     -0.480100
      4 CAT         2.0830    0.0990    1.3870 ca        1 35V      0.082100
      5 OAB         3.4540    0.1660    1.4080 oh        1 35V     -0.498100
      6 CAF         1.2840    0.0940    2.5330 ca        1 35V     -0.166000
      7 CAH        -0.1030    0.0310    2.4050 ca        1 35V     -0.115000
      8 CAW        -0.6940   -0.0340    1.1400 ca        1 35V     -0.176300
      9 CAZ        -2.1800   -0.1130    1.0000 c3        1 35V      0.193400
     10 OAD        -2.8150   -0.8730    2.0200 oh        1 35V     -0.638800
     11 CAP        -2.7650    1.3150    1.1070 c3        1 35V      0.096800
     12 NAQ        -4.2560    1.3080    1.1300 ny        1 35V     -0.758000
     13 CAM        -4.8240    2.6790    1.2910 c3        1 35V      0.100800
     14 CAO        -6.3540    2.6840    1.3000 c3        1 35V     -0.040100
     15 CAV        -6.8250    4.0800    1.5040 ca        1 35V     -0.135300
     16 CAK        -7.2080    4.8540    0.3960 ca        1 35V     -0.172000
     17 CAY        -7.6630    6.1560    0.5840 ca        1 35V      0.114100
     18 OAR        -8.0500    7.0110   -0.4230 os        1 35V     -0.292900
     19 CAA        -8.1530    6.4450   -1.7260 c3        1 35V      0.107700
     20 CAG        -6.9030    4.6120    2.7880 ca        1 35V     -0.109000
     21 CAI        -7.3540    5.9190    2.9910 ca        1 35V     -0.183000
     22 CAX        -7.7350    6.7010    1.9010 ca        1 35V      0.143100
     23 OAS        -8.1890    7.9940    1.9700 os        1 35V     -0.297900
     24 CAN        -8.2930    8.5530    3.2920 c3        1 35V      0.134400
     25 CAL        -8.8160    9.9590    3.0900 c3        1 35V     -0.007300
     26 SAE        -8.7510   10.7400    4.6770 sh        1 35V     -0.365900
     27 H1         -0.3490   -0.1020   -1.0190 ha        1 35V      0.158000
     28 H2          3.1600    0.0510   -0.8320 ho        1 35V      0.454000
     29 H3          3.7500    0.1580    2.3310 ho        1 35V      0.446000
     30 H4          1.7470    0.1390    3.5310 ha        1 35V      0.156000
     31 H5         -0.7330    0.0260    3.3080 ha        1 35V      0.142000
     32 H6         -2.4580   -0.5680    0.0040 h1        1 35V      0.068700
     33 H7         -2.2230   -1.5930    2.2740 ho        1 35V      0.457000
     34 H8         -2.4040    1.7940    2.0620 hx        1 35V      0.113700
     35 H9         -2.4150    1.9250    0.2280 hx        1 35V      0.113700
     36 H10        -4.6080    0.8890    0.2640 hn        1 35V      0.455800
     37 H12        -4.4440    3.3160    0.4420 hx        1 35V      0.108200
     38 H13        -4.4370    3.1060    2.2610 hx        1 35V      0.108200
     39 H14        -6.7490    2.2780    0.3310 hc        1 35V      0.068200
     40 H15        -6.7390    2.0290    2.1290 hc        1 35V      0.068200
     41 H16        -7.1610    4.4240   -0.6140 ha        1 35V      0.139000
     42 H17        -8.8610    5.5820   -1.7310 h1        1 35V      0.050367
     43 H18        -7.1470    6.1340   -2.0990 h1        1 35V      0.050367
     44 H19        -8.5560    7.2930   -2.3390 h1        1 35V      0.050367
     45 H20        -6.6210    4.0030    3.6600 ha        1 35V      0.131000
     46 H21        -7.4120    6.3150    4.0160 ha        1 35V      0.157000
     47 H22        -7.2780    8.5630    3.7720 h1        1 35V      0.058700
     48 H23        -9.0050    7.9370    3.9020 h1        1 35V      0.058700
     49 H24        -8.1810   10.5030    2.3490 h1        1 35V      0.082700
     50 H25        -9.8570    9.9310    2.6900 h1        1 35V      0.082700
     51 H26        -9.3890   11.8600    4.3770 hs        1 35V      0.221800
     52 HAQ2       -4.5630    0.7080    1.9100 hn        1 35V      0.455800
@<TRIPOS>BOND
     1    1    2 ar  
     2    1    8 ar  
     3    1   27 1   
     4    2    3 1   
     5    2    4 ar  
     6    3   28 1   
     7    4    5 1   
     8    4    6 ar  
     9    5   29 1   
    10    6    7 ar  
    11    6   30 1   
    12    7    8 ar  
    13    7   31 1   
    14    8    9 1   
    15    9   10 1   
    16    9   11 1   
    17    9   32 1   
    18   10   33 1   
    19   11   12 1   
    20   11   34 1   
    21   11   35 1   
    22   12   13 1   
    23   12   36 1   
    24   12   52 1   
    25   13   14 1   
    26   13   37 1   
    27   13   38 1   
    28   14   15 1   
    29   14   39 1   
    30   14   40 1   
    31   15   16 ar  
    32   15   20 ar  
    33   16   17 ar  
    34   16   41 1   
    35   17   18 1   
    36   17   22 ar  
    37   18   19 1   
    38   19   42 1   
    39   19   43 1   
    40   19   44 1   
    41   20   21 ar  
    42   20   45 1   
    43   21   22 ar  
    44   21   46 1   
    45   22   23 1   
    46   23   24 1   
    47   24   25 1   
    48   24   47 1   
    49   24   48 1   
    50   25   26 1   
    51   25   49 1   
    52   25   50 1   
    53   26   51 1   
@<TRIPOS>SUBSTRUCTURE
     1 35V         1 TEMP              0 ****  ****    0 ROOT
