@<TRIPOS>MOLECULE
35W
   43    47     1     0     0
SMALL
bcc


@<TRIPOS>ATOM
      1 C4          0.1520    0.0410   -0.1190 ca        1 35W     -0.122300
      2 C5          1.5200   -0.0920    0.1380 ca        1 35W     -0.109000
      3 C6          2.0200    0.1730    1.4120 ca        1 35W     -0.132500
      4 C7         -0.3880   -0.2880   -1.4800 c3        1 35W      0.103600
      5 C10        -1.2420    2.7270   -3.3620 cc        1 35W     -0.198100
      6 N12        -2.2990    1.1840   -2.0170 nd        1 35W     -0.518800
      7 C13        -1.0170    3.8520   -4.1960 cc        1 35W     -0.121000
      8 C17        -1.2580    5.8180   -5.4430 ca        1 35W      0.317500
      9 C20        -3.8650    6.1460   -4.8140 cp        1 35W      0.311500
     10 C21        -3.1420    7.0590   -5.6620 ca        1 35W      0.314900
     11 C24        -5.8310    6.2250   -3.2680 ca        1 35W     -0.225800
     12 C28        -6.1130    6.9190   -5.5590 ca        1 35W     -0.225800
     13 C1          1.1590    0.5790    2.4310 ca        1 35W     -0.119000
     14 C2         -0.2050    0.7170    2.1760 ca        1 35W     -0.132500
     15 C3         -0.7110    0.4480    0.9040 ca        1 35W     -0.109000
     16 N8         -1.0090    0.8290   -2.1700 na        1 35W      0.087400
     17 C9         -0.3120    1.7470   -2.9630 cd        1 35W     -0.135300
     18 C11        -2.4870    2.3170   -2.7330 cc        1 35W      0.333200
     19 C14         0.1880    4.1950   -4.8210 cd        1 35W     -0.105100
     20 N15         0.0560    5.3660   -5.5690 na        1 35W     -0.274100
     21 C18        -1.9820    4.8770   -4.5710 ca        1 35W      0.314800
     22 N19        -3.2830    5.0570   -4.2650 nb        1 35W     -0.578000
     23 N22        -1.8530    6.9210   -5.9890 nb        1 35W     -0.636000
     24 C23        -5.2810    6.4290   -4.5410 cp        1 35W     -0.096500
     25 C25        -7.1900    6.5300   -3.0690 ca        1 35W      0.390200
     26 N26        -7.9990    7.0070   -4.0340 nb        1 35W     -0.660000
     27 C27        -7.4570    7.1910   -5.2540 ca        1 35W      0.390200
     28 H1          2.2050   -0.4100   -0.6620 ha        1 35W      0.140000
     29 H2          3.0960    0.0630    1.6120 ha        1 35W      0.134500
     30 H3         -1.1540   -1.1130   -1.3730 h1        1 35W      0.072700
     31 H4          0.4440   -0.6590   -2.1440 h1        1 35W      0.072700
     32 H5         -3.6520    7.9460   -6.0800 h4        1 35W      0.036100
     33 H7         -5.7330    7.0770   -6.5770 ha        1 35W      0.152000
     34 H8          1.5550    0.7900    3.4350 ha        1 35W      0.134000
     35 H9         -0.8860    1.0380    2.9780 ha        1 35W      0.134500
     36 H10        -1.7880    0.5570    0.7030 ha        1 35W      0.140000
     37 H11         0.7470    1.6360   -3.1870 h4        1 35W      0.171000
     38 H12        -3.4580    2.8110   -2.8010 h4        1 35W      0.062100
     39 H13         1.1470    3.6730   -4.7820 h4        1 35W      0.172000
     40 H14         0.7650    5.8050   -6.0950 hn        1 35W      0.314700
     41 H15        -7.6580    6.3830   -2.0790 h4        1 35W      0.023600
     42 H16        -8.1430    7.5770   -6.0300 h4        1 35W      0.023600
     43 H6         -5.2220    5.8330   -2.4420 ha        1 35W      0.152000
@<TRIPOS>BOND
     1    1    2 ar  
     2    1    4 1   
     3    1   15 ar  
     4    2    3 ar  
     5    2   28 1   
     6    3   13 ar  
     7    3   29 1   
     8    4   16 1   
     9    4   30 1   
    10    4   31 1   
    11    5    7 1   
    12    5   17 2   
    13    5   18 1   
    14    6   16 1   
    15    6   18 2   
    16    7   19 2   
    17    7   21 1   
    18    8   20 1   
    19    8   21 ar  
    20    8   23 ar  
    21    9   10 ar  
    22    9   22 ar  
    23    9   24 1   
    24   10   23 ar  
    25   10   32 1   
    26   11   24 ar  
    27   11   25 ar  
    28   11   43 1   
    29   12   24 ar  
    30   12   27 ar  
    31   12   33 1   
    32   13   14 ar  
    33   13   34 1   
    34   14   15 ar  
    35   14   35 1   
    36   15   36 1   
    37   16   17 1   
    38   17   37 1   
    39   18   38 1   
    40   19   20 1   
    41   19   39 1   
    42   20   40 1   
    43   21   22 ar  
    44   25   26 ar  
    45   25   41 1   
    46   26   27 ar  
    47   27   42 1   
@<TRIPOS>SUBSTRUCTURE
     1 35W         1 TEMP              0 ****  ****    0 ROOT
