@<TRIPOS>MOLECULE
35X
   39    55     1     0     0
SMALL
bcc


@<TRIPOS>ATOM
      1 C5          0.0000    0.0000    0.0000 c3        1 35X     -0.356000
      2 C6          1.3640    0.0000    0.0000 c3        1 35X     -0.119000
      3 C7          1.7880    0.0000    1.3420 c2        1 35X     -0.159000
      4 C10         2.1540   -0.8340   -2.2630 c2        1 35X      0.069000
      5 C13         3.8990    0.5120   -2.7100 c3        1 35X     -0.136000
      6 C17         5.4920    2.1500   -2.5340 c2        1 35X     -0.142000
      7 C20         5.1580    3.9940    0.7360 c3        1 35X     -0.228000
      8 C21         5.7640    5.0430    1.3960 c2        1 35X     -0.258000
      9 C24         6.6330    4.4050   -1.1110 c2        1 35X      0.500000
     10 C1         -3.4800   -1.1710    3.1730 DU        1 35X      0.110000
     11 C2         -2.0280   -1.1760    2.6930 DU        1 35X     -0.349000
     12 N4         -0.4080    0.0010    1.2870 nx        1 35X      0.085000
     13 N8          0.7280    0.0010    2.1050 n2        1 35X     -0.266000
     14 C9          2.2410   -0.0020   -1.2000 c3        1 35X      0.015000
     15 N11         3.1370   -0.5350   -3.1670 n7        1 35X     -0.140000
     16 C14         3.3720    0.9010   -1.4590 c2        1 35X     -0.217000
     17 N15         3.9230    1.9030   -0.7860 n2        1 35X      0.096000
     18 C16         4.9720    2.5370   -1.2960 c2        1 35X     -0.244000
     19 N18         4.9430    1.1610   -3.2100 n7        1 35X      0.100000
     20 C19         5.5930    3.6570   -0.5490 c3        1 35X      0.310000
     21 N22         6.7380    5.7270    0.8280 n2        1 35X      0.050000
     22 C23         7.1760    5.4460   -0.3850 c3        1 35X     -0.055000
     23 H1         -0.7990   -0.0920    0.7250 DU        1 35X      0.331000
     24 H2          0.9880    0.0000    0.6120 DU        1 35X      0.278000
     25 H3          2.3310   -0.6130   -1.2170 DU        1 35X      0.114000
     26 H4          4.6970    1.4140   -2.5040 DU        1 35X      0.225000
     27 H5          5.4740    3.6440   -0.2390 hc        1 35X     -0.081000
     28 H6          5.0520    4.2310    1.3020 DU        1 35X      0.213000
     29 H7          6.2920    4.6620   -0.1150 DU        1 35X      0.162000
     30 H8         -2.5990   -0.7210    2.7300 DU        1 35X      0.129000
     31 H9         -3.6200   -1.9540    3.9080 ha        1 35X      0.100000
     32 H10        -4.1390   -1.3430    2.3310 ha        1 35X      0.100000
     33 H11        -2.8740   -0.6880    3.1610 DU        1 35X      0.129000
     34 H12        -1.7800   -2.1420    2.2690 ha        1 35X      0.174000
     35 H13        -1.5680   -0.4960    2.6800 DU        1 35X      0.236000
     36 H14        -2.3800    0.8000    2.2000 hx        1 35X      0.167000
     37 H15         2.3230   -0.5330   -2.5850 hn        1 35X      0.146000
     38 H16         6.6360    4.6060   -0.8050 h1        1 35X     -0.505000
     39 C3         -1.7990    0.0060    1.7480 c3        1 35X     -0.585000
@<TRIPOS>BOND
     1    1    2 1   
     2    1   12 1   
     3    1   23 1   
     4    1   24 1   
     5    2    3 1   
     6    2   14 1   
     7    2   24 1   
     8    3   13 1   
     9    3   24 1   
    10    4   14 1   
    11    4   15 1   
    12    4   25 1   
    13    5   15 1   
    14    5   16 1   
    15    5   19 1   
    16    5   26 1   
    17    6   18 1   
    18    6   19 1   
    19    6   26 1   
    20    7    8 1   
    21    7   20 1   
    22    7   27 1   
    23    7   28 1   
    24    8   21 1   
    25    8   28 1   
    26    9   20 1   
    27    9   22 1   
    28    9   29 1   
    29   10   11 1   
    30   10   30 1   
    31   10   31 1   
    32   10   32 1   
    33   10   33 1   
    34   11   30 1   
    35   11   33 1   
    36   11   34 1   
    37   11   35 1   
    38   11   39 1   
    39   12   13 1   
    40   12   23 1   
    41   12   39 1   
    42   14   16 1   
    43   14   25 1   
    44   15   37 1   
    45   16   17 1   
    46   17   18 1   
    47   18   20 1   
    48   19   26 1   
    49   20   29 1   
    50   21   22 1   
    51   22   29 1   
    52   22   38 1   
    53   30   33 1   
    54   35   39 1   
    55   36   39 1   
@<TRIPOS>SUBSTRUCTURE
     1 35X         1 TEMP              0 ****  ****    0 ROOT
