@<TRIPOS>MOLECULE
35Y
   21    21     1     0     0
SMALL
bcc


@<TRIPOS>ATOM
      1 O1          1.0810    1.7680   -0.7960 o         1 35Y     -0.632100
      2 O          -4.4680   -0.4800   -0.8840 o         1 35Y     -0.829300
      3 N3          0.0620    0.1310    0.4980 n         1 35Y     -0.492900
      4 C          -3.7270   -0.0210    0.0270 c         1 35Y      0.896600
      5 N4          2.8820   -0.9240    0.9390 nc        1 35Y     -0.363000
      6 CA         -2.2910   -0.6390    0.1720 c3        1 35Y     -0.009500
      7 N5          4.2010   -1.0180    0.7980 nc        1 35Y     -0.065000
      8 C6         -1.3010    0.5390    0.2160 c3        1 35Y      0.088000
      9 N6          4.6800   -0.1290   -0.0010 nd        1 35Y     -0.208800
     10 C7          1.1260    0.7280   -0.0980 c         1 35Y      0.581600
     11 N7          3.6580    0.6150   -0.4330 na        1 35Y     -0.151400
     12 C8          2.4790    0.1240    0.1580 cd        1 35Y      0.352000
     13 N          -1.9410   -1.6290   -0.8350 n3        1 35Y     -0.895800
     14 HN3         0.1780   -0.7670    0.9140 hn        1 35Y      0.334500
     15 HA         -2.2760   -1.1670    1.1700 h1        1 35Y      0.046700
     16 H6         -1.6420    1.2340    1.0380 h1        1 35Y      0.076200
     17 H6A        -1.3280    1.1060   -0.7560 h1        1 35Y      0.076200
     18 HN7         3.7460    1.3820   -1.0620 hn        1 35Y      0.348700
     19 H          -2.6930   -2.2970   -0.8710 hn        1 35Y      0.338300
     20 H2         -1.9250   -1.1770   -1.7330 hn        1 35Y      0.338300
     21 OXT        -4.0480    0.8780    0.8500 o         1 35Y     -0.829300
@<TRIPOS>BOND
     1    1   10 2   
     2    2    4 1   
     3    3    8 1   
     4    3   10 1   
     5    3   14 1   
     6    4    6 1   
     7    4   21 1   
     8    5    7 1   
     9    5   12 2   
    10    6    8 1   
    11    6   13 1   
    12    6   15 1   
    13    7    9 2   
    14    8   16 1   
    15    8   17 1   
    16    9   11 1   
    17   10   12 1   
    18   11   12 1   
    19   11   18 1   
    20   13   19 1   
    21   13   20 1   
@<TRIPOS>SUBSTRUCTURE
     1 35Y         1 TEMP              0 ****  ****    0 ROOT
