@<TRIPOS>MOLECULE
361
   36    32     1     0     0
SMALL
bcc


@<TRIPOS>ATOM
      1 F21        -3.9230    0.1210    3.6770 f         1 361     -0.086000
      2 C5         -2.5840    0.1210    3.6770 c2        1 361      0.050000
      3 C6         -1.8910    0.1210    4.8770 c2        1 361      0.089000
      4 F27        -2.5610    0.1130    6.0370 f         1 361     -0.083000
      5 C4         -1.8910    0.0970    2.4760 c1        1 361     -0.107000
      6 C3         -0.5050    0.0720    2.4760 c1        1 361     -0.079000
      7 C2          0.1880    0.0720    3.6770 c1        1 361      0.107000
      8 F22         1.5270    0.0640    3.6770 f         1 361     -0.099000
      9 C1         -0.5050    0.0970    4.8770 c2        1 361     -0.182000
     10 C9          0.3230   -0.0270    1.0410 c3        1 361     -0.069000
     11 C14         0.0150    1.2010    0.2520 c3        1 361     -0.029000
     12 N23         0.5780    2.3950    1.0100 n3        1 361     -0.335000
     13 C13         0.5260    1.2520   -1.0880 c3        1 361     -0.055000
     14 N12         0.5530   -0.0840   -1.8710 n3        1 361     -0.187000
     15 C29         0.7800   -0.4140   -3.1580 c1        1 361      0.003000
     16 C19         0.5930   -1.8020   -3.2920 c1        1 361     -0.128000
     17 N18         0.2320   -2.3310   -2.0070 n1        1 361     -0.116000
     18 C11         0.2010   -1.3230   -1.1400 c1        1 361      0.014000
     19 C10         0.0080   -1.2260    0.4580 c2        1 361     -0.094000
     20 C20         0.7810   -2.4120   -4.5290 c1        1 361     -0.002000
     21 N21         1.1500   -1.6570   -5.6210 n1        1 361     -0.156000
     22 C22         1.3360   -0.2840   -5.4910 c1        1 361     -0.061000
     23 C23         1.1480    0.3350   -4.2490 c1        1 361     -0.183000
     24 H4         -2.3790    0.0970    1.6310 ha        1 361      0.160000
     25 H1         -0.0170    0.0970    5.7230 ha        1 361      0.172000
     26 H9          1.2790   -0.0280    1.2390 hc        1 361      0.117000
     27 H14        -0.9550    1.2970    0.2090 h1        1 361      0.114000
     28 HN23        0.0130    3.1060    0.9220 hn        1 361      0.156000
     29 HN2A        1.3960    2.6130    0.6710 hn        1 361      0.156000
     30 H13        -0.0180    1.8860   -1.5930 h1        1 361      0.094500
     31 H13A        1.4380    1.5970   -1.0490 h1        1 361      0.094500
     32 H10         0.5610   -1.9160    0.8710 ha        1 361      0.123000
     33 H10A       -0.9260   -1.4240    0.6610 ha        1 361      0.123000
     34 H20         0.6510   -3.3750   -4.6230 ha        1 361      0.175000
     35 H22         1.5980    0.2480   -6.2660 ha        1 361      0.160000
     36 H23         1.2790    1.2980   -4.1590 ha        1 361      0.144000
@<TRIPOS>BOND
     1    1    2 1   
     2    2    3 1   
     3    2    5 1   
     4    3    4 1   
     5    3    9 1   
     6    5   24 1   
     7    6    7 1   
     8    6   10 1   
     9    7    9 1   
    10    9   25 1   
    11   10   11 1   
    12   10   19 1   
    13   10   26 1   
    14   11   12 1   
    15   11   13 1   
    16   11   27 1   
    17   12   28 1   
    18   12   29 1   
    19   13   14 1   
    20   13   30 1   
    21   13   31 1   
    22   14   15 1   
    23   14   18 1   
    24   15   23 1   
    25   16   20 1   
    26   17   18 1   
    27   19   32 1   
    28   19   33 1   
    29   20   34 1   
    30   21   22 1   
    31   22   35 1   
    32   23   36 1   
@<TRIPOS>SUBSTRUCTURE
     1 361         1 TEMP              0 ****  ****    0 ROOT
