@<TRIPOS>MOLECULE
361
   37    40     1     0     0
SMALL
bcc


@<TRIPOS>ATOM
      1 F21         0.0560   -0.8520    0.3180 f         1 361     -0.089900
      2 C5          1.3390   -0.4580    0.1930 ca        1 361      0.108900
      3 C6          2.0890   -0.0960    1.3470 ca        1 361      0.156900
      4 F27         1.5260   -0.1540    2.5670 f         1 361     -0.082900
      5 C4          1.9400   -0.4110   -1.0760 ca        1 361     -0.110000
      6 C3          3.2640   -0.0040   -1.2310 ca        1 361     -0.174300
      7 C2          3.9900    0.3810   -0.0770 ca        1 361      0.096900
      8 F22         5.2720    0.8190   -0.2050 f         1 361     -0.150900
      9 C1          3.4190    0.3270    1.2010 ca        1 361     -0.164000
     10 C9          3.9590   -0.0350   -2.5540 c3        1 361     -0.027400
     11 C14         3.8840    1.3270   -3.2840 c3        1 361      0.102500
     12 N23         4.2770    2.4560   -2.3780 nz        1 361     -0.838600
     13 C13         4.8120    1.3080   -4.5360 c3        1 361      0.039300
     14 N12         4.5170    0.1800   -5.3580 na        1 361     -0.183300
     15 C29         5.1500   -0.1290   -6.5770 ca        1 361     -0.037200
     16 C19         5.0040   -1.5670   -6.7420 ca        1 361     -0.056900
     17 N18         4.3580   -2.1190   -5.6140 nc        1 361     -0.481100
     18 C11         4.1160   -1.0870   -4.7990 cd        1 361      0.378800
     19 C10         3.4120   -1.1160   -3.4840 c3        1 361     -0.084700
     20 C20         5.4920   -2.1530   -7.9310 ca        1 361      0.486200
     21 N21         6.0850   -1.4160   -8.8790 nb        1 361     -0.658000
     22 C22         6.2120   -0.0800   -8.6980 ca        1 361      0.435200
     23 C23         5.7660    0.6320   -7.5720 ca        1 361     -0.254300
     24 H4          1.3340   -0.7240   -1.9430 ha        1 361      0.176000
     25 H1          4.0120    0.6010    2.0910 ha        1 361      0.195000
     26 H9          5.0510   -0.2720   -2.3680 hc        1 361      0.100700
     27 H14         2.8160    1.5220   -3.6060 hx        1 361      0.127700
     28 HN23        4.2460    3.3450   -2.8840 hn        1 361      0.466467
     29 HN2A        5.2260    2.2990   -2.0140 hn        1 361      0.466467
     30 H13         5.8910    1.2910   -4.1970 h1        1 361      0.069200
     31 H13A        4.6470    2.2440   -5.1470 h1        1 361      0.069200
     32 H10         3.5450   -2.1210   -2.9980 hc        1 361      0.102200
     33 H10A        2.3150   -0.9670   -3.6780 hc        1 361      0.102200
     34 H20         5.3980   -3.2390   -8.1190 h4        1 361      0.056100
     35 H22         6.7130    0.4560   -9.5270 h4        1 361      0.042100
     36 H23         5.8930    1.7170   -7.4980 ha        1 361      0.148000
     37 H233        3.6310    2.4860   -1.5800 hn        1 361      0.466467
@<TRIPOS>BOND
     1    1    2 1   
     2    2    3 ar  
     3    2    5 ar  
     4    3    4 1   
     5    3    9 ar  
     6    5    6 ar  
     7    5   24 1   
     8    6    7 ar  
     9    6   10 1   
    10    7    8 1   
    11    7    9 ar  
    12    9   25 1   
    13   10   11 1   
    14   10   19 1   
    15   10   26 1   
    16   11   12 1   
    17   11   13 1   
    18   11   27 1   
    19   12   28 1   
    20   12   29 1   
    21   12   37 1   
    22   13   14 1   
    23   13   30 1   
    24   13   31 1   
    25   14   15 1   
    26   14   18 1   
    27   15   16 ar  
    28   15   23 ar  
    29   16   17 1   
    30   16   20 ar  
    31   17   18 2   
    32   18   19 1   
    33   19   32 1   
    34   19   33 1   
    35   20   21 ar  
    36   20   34 1   
    37   21   22 ar  
    38   22   23 ar  
    39   22   35 1   
    40   23   36 1   
@<TRIPOS>SUBSTRUCTURE
     1 361         1 TEMP              0 ****  ****    0 ROOT
