@<TRIPOS>MOLECULE
361
   37    40     1     0     0
SMALL
bcc


@<TRIPOS>ATOM
      1 F21         0.0590   -0.8630    0.3190 f         1 361     -0.089900
      2 C5          1.3410   -0.4650    0.1930 ca        1 361      0.108900
      3 C6          2.0900   -0.0980    1.3470 ca        1 361      0.156900
      4 F27         1.5270   -0.1570    2.5680 f         1 361     -0.082900
      5 C4          1.9420   -0.4170   -1.0750 ca        1 361     -0.110000
      6 C3          3.2650   -0.0040   -1.2310 ca        1 361     -0.174300
      7 C2          3.9900    0.3850   -0.0770 ca        1 361      0.096900
      8 F22         5.2690    0.8280   -0.2060 f         1 361     -0.150900
      9 C1          3.4190    0.3300    1.2010 ca        1 361     -0.164000
     10 C9          3.9590   -0.0340   -2.5540 c3        1 361     -0.027400
     11 C14         3.8790    1.3260   -3.2850 c3        1 361      0.102500
     12 N23         4.2680    2.4580   -2.3810 n4        1 361     -0.838600
     13 C13         4.8070    1.3100   -4.5370 c3        1 361      0.039300
     14 N12         4.5170    0.1800   -5.3580 na        1 361     -0.183300
     15 C29         5.1510   -0.1290   -6.5770 ca        1 361     -0.037200
     16 C19         5.0110   -1.5670   -6.7400 ca        1 361     -0.056900
     17 N18         4.3660   -2.1210   -5.6110 nc        1 361     -0.481100
     18 C11         4.1200   -1.0880   -4.7970 cd        1 361      0.378800
     19 C10         3.4160   -1.1180   -3.4830 c3        1 361     -0.084700
     20 C20         5.5000   -2.1520   -7.9280 ca        1 361      0.486200
     21 N21         6.0910   -1.4140   -8.8770 nb        1 361     -0.658000
     22 C22         6.2130   -0.0780   -8.6980 ca        1 361      0.435200
     23 C23         5.7640    0.6330   -7.5720 ca        1 361     -0.254300
     24 H4          1.3370   -0.7320   -1.9420 ha        1 361      0.176000
     25 H1          4.0100    0.6070    2.0900 ha        1 361      0.195000
     26 H9          5.0530   -0.2670   -2.3680 hc        1 361      0.100700
     27 H14         2.8110    1.5170   -3.6070 hx        1 361      0.127700
     28 HN23        5.2180    2.3050   -2.0170 hn        1 361      0.466467
     29 HN2A        4.2340    3.3460   -2.8880 hn        1 361      0.466467
     30 H13         4.6390    2.2440   -5.1490 h1        1 361      0.069200
     31 H13A        5.8860    1.2970   -4.1980 h1        1 361      0.069200
     32 H10         2.3180   -0.9740   -3.6770 hc        1 361      0.102200
     33 H10A        3.5530   -2.1230   -2.9950 hc        1 361      0.102200
     34 H20         5.4110   -3.2390   -8.1150 h4        1 361      0.056100
     35 H22         6.7130    0.4590   -9.5270 h4        1 361      0.042100
     36 H23         5.8880    1.7190   -7.4990 ha        1 361      0.148000
     37 H233        3.6220    2.4860   -1.5830 hn        1 361      0.466467
@<TRIPOS>BOND
     1    1    2 1   
     2    2    3 ar  
     3    2    5 ar  
     4    3    4 1   
     5    3    9 ar  
     6    5    6 ar  
     7    5   24 1   
     8    6    7 ar  
     9    6   10 1   
    10    7    8 1   
    11    7    9 ar  
    12    9   25 1   
    13   10   11 1   
    14   10   19 1   
    15   10   26 1   
    16   11   12 1   
    17   11   13 1   
    18   11   27 1   
    19   12   28 1   
    20   12   29 1   
    21   12   37 1   
    22   13   14 1   
    23   13   30 1   
    24   13   31 1   
    25   14   15 1   
    26   14   18 1   
    27   15   16 ar  
    28   15   23 ar  
    29   16   17 1   
    30   16   20 ar  
    31   17   18 2   
    32   18   19 1   
    33   19   32 1   
    34   19   33 1   
    35   20   21 ar  
    36   20   34 1   
    37   21   22 ar  
    38   22   23 ar  
    39   22   35 1   
    40   23   36 1   
@<TRIPOS>SUBSTRUCTURE
     1 361         1 TEMP              0 ****  ****    0 ROOT
