@<TRIPOS>MOLECULE
361
   36    39     1     0     0
SMALL
bcc


@<TRIPOS>ATOM
      1 F21         4.3830   -1.9470    1.5030 f         1 361     -0.117900
      2 C5          3.8730   -1.0280    0.6540 ca        1 361      0.081900
      3 C6          4.7310   -0.3260   -0.2360 ca        1 361      0.126900
      4 F27         6.0580   -0.5770   -0.2360 f         1 361     -0.113900
      5 C4          2.4970   -0.7590    0.6460 ca        1 361     -0.128000
      6 C3          1.9510    0.1880   -0.2210 ca        1 361     -0.112300
      7 C2          2.8110    0.8790   -1.1040 ca        1 361      0.151900
      8 F22         2.3200    1.8020   -1.9640 f         1 361     -0.122900
      9 C1          4.1940    0.6250   -1.1120 ca        1 361     -0.184000
     10 C9          0.4790    0.4570   -0.2220 c3        1 361     -0.028400
     11 C14        -0.0260    0.8920    1.1750 c3        1 361      0.173500
     12 N23         0.7250    2.0040    1.7250 n3        1 361     -0.916800
     13 C13        -1.5270    1.3000    1.0570 c3        1 361      0.046300
     14 N12        -2.2920    0.3110    0.3620 na        1 361     -0.163300
     15 C29        -3.6770    0.1830    0.2850 ca        1 361     -0.041200
     16 C19        -3.9190   -0.8910   -0.6700 ca        1 361     -0.054900
     17 N18        -2.6950   -1.3780   -1.1600 nc        1 361     -0.545100
     18 C11        -1.7470   -0.6440   -0.5410 cd        1 361      0.412800
     19 C10        -0.2700   -0.7890   -0.6920 c3        1 361     -0.088700
     20 C20        -5.2600   -1.2510   -0.9330 ca        1 361      0.462200
     21 N21        -6.2840   -0.6340   -0.3360 nb        1 361     -0.683000
     22 C22        -6.0300    0.3640    0.5480 ca        1 361      0.402200
     23 C23        -4.7570    0.8230    0.9060 ca        1 361     -0.246300
     24 H4          1.8440   -1.3170    1.3370 ha        1 361      0.161000
     25 H1          4.8520    1.1700   -1.8060 ha        1 361      0.176000
     26 H9          0.2610    1.2990   -0.9430 hc        1 361      0.094700
     27 H14         0.0270   -0.0190    1.8490 h1        1 361      0.025700
     28 HN23        0.5280    2.1090    2.7000 hn        1 361      0.364300
     29 HN2A        1.7070    1.8760    1.5860 hn        1 361      0.364300
     30 H13        -1.9600    1.4330    2.0890 h1        1 361      0.067700
     31 H13A       -1.6060    2.2850    0.5100 h1        1 361      0.067700
     32 H10        -0.0240   -0.9850   -1.7710 hc        1 361      0.081700
     33 H10A        0.0580   -1.6860   -0.0980 hc        1 361      0.081700
     34 H20        -5.5040   -2.0590   -1.6460 h4        1 361      0.037100
     35 H22        -6.9290    0.8240    0.9980 h4        1 361      0.022100
     36 H23        -4.6200    1.6350    1.6280 ha        1 361      0.145000
@<TRIPOS>BOND
     1    1    2 1   
     2    2    3 ar  
     3    2    5 ar  
     4    3    4 1   
     5    3    9 ar  
     6    5    6 ar  
     7    5   24 1   
     8    6    7 ar  
     9    6   10 1   
    10    7    8 1   
    11    7    9 ar  
    12    9   25 1   
    13   10   11 1   
    14   10   19 1   
    15   10   26 1   
    16   11   12 1   
    17   11   13 1   
    18   11   27 1   
    19   12   28 1   
    20   12   29 1   
    21   13   14 1   
    22   13   30 1   
    23   13   31 1   
    24   14   15 1   
    25   14   18 1   
    26   15   16 ar  
    27   15   23 ar  
    28   16   17 1   
    29   16   20 ar  
    30   17   18 2   
    31   18   19 1   
    32   19   32 1   
    33   19   33 1   
    34   20   21 ar  
    35   20   34 1   
    36   21   22 ar  
    37   22   23 ar  
    38   22   35 1   
    39   23   36 1   
@<TRIPOS>SUBSTRUCTURE
     1 361         1 TEMP              0 ****  ****    0 ROOT
