@<TRIPOS>MOLECULE
361
   37    40     1     0     0
SMALL
bcc


@<TRIPOS>ATOM
      1 F21         0.0600   -0.8670    0.3190 f         1 361     -0.089900
      2 C5          1.3410   -0.4680    0.1930 ca        1 361      0.108900
      3 C6          2.0900   -0.1010    1.3470 ca        1 361      0.156900
      4 F27         1.5270   -0.1610    2.5680 f         1 361     -0.082900
      5 C4          1.9420   -0.4190   -1.0750 ca        1 361     -0.110000
      6 C3          3.2650   -0.0050   -1.2310 ca        1 361     -0.174300
      7 C2          3.9890    0.3840   -0.0770 ca        1 361      0.096900
      8 F22         5.2680    0.8280   -0.2060 f         1 361     -0.150900
      9 C1          3.4180    0.3280    1.2010 ca        1 361     -0.164000
     10 C9          3.9590   -0.0340   -2.5540 c3        1 361     -0.027400
     11 C14         3.8780    1.3260   -3.2850 c3        1 361      0.102500
     12 N23         4.2660    2.4580   -2.3800 n4        1 361     -0.838600
     13 C13         4.8060    1.3110   -4.5370 c3        1 361      0.039300
     14 N12         4.5170    0.1810   -5.3580 na        1 361     -0.183300
     15 C29         5.1510   -0.1270   -6.5770 ca        1 361     -0.037200
     16 C19         5.0120   -1.5650   -6.7400 ca        1 361     -0.056900
     17 N18         4.3680   -2.1200   -5.6120 nc        1 361     -0.481100
     18 C11         4.1220   -1.0880   -4.7970 cd        1 361      0.378800
     19 C10         3.4170   -1.1190   -3.4830 c3        1 361     -0.084700
     20 C20         5.5020   -2.1500   -7.9280 ca        1 361      0.486200
     21 N21         6.0920   -1.4110   -8.8770 nb        1 361     -0.658000
     22 C22         6.2140   -0.0750   -8.6970 ca        1 361      0.435200
     23 C23         5.7640    0.6360   -7.5720 ca        1 361     -0.254300
     24 H4          1.3370   -0.7350   -1.9420 ha        1 361      0.176000
     25 H1          4.0090    0.6050    2.0900 ha        1 361      0.195000
     26 H9          5.0530   -0.2660   -2.3680 hc        1 361      0.100700
     27 H14         2.8100    1.5160   -3.6070 hx        1 361      0.127700
     28 HN23        3.6200    2.4860   -1.5820 hn        1 361      0.466467
     29 HN2A        4.2310    3.3460   -2.8870 hn        1 361      0.466467
     30 H13         5.8860    1.2990   -4.1980 h1        1 361      0.069200
     31 H13A        4.6370    2.2450   -5.1480 h1        1 361      0.069200
     32 H10         2.3190   -0.9750   -3.6770 hc        1 361      0.102200
     33 H10A        3.5550   -2.1230   -2.9960 hc        1 361      0.102200
     34 H20         5.4130   -3.2370   -8.1160 h4        1 361      0.056100
     35 H22         6.7130    0.4620   -9.5270 h4        1 361      0.042100
     36 H23         5.8870    1.7220   -7.4980 ha        1 361      0.148000
     37 H233        5.2160    2.3060   -2.0160 hn        1 361      0.466467
@<TRIPOS>BOND
     1    1    2 1   
     2    2    3 ar  
     3    2    5 ar  
     4    3    4 1   
     5    3    9 ar  
     6    5    6 ar  
     7    5   24 1   
     8    6    7 ar  
     9    6   10 1   
    10    7    8 1   
    11    7    9 ar  
    12    9   25 1   
    13   10   11 1   
    14   10   19 1   
    15   10   26 1   
    16   11   12 1   
    17   11   13 1   
    18   11   27 1   
    19   12   28 1   
    20   12   29 1   
    21   12   37 1   
    22   13   14 1   
    23   13   30 1   
    24   13   31 1   
    25   14   15 1   
    26   14   18 1   
    27   15   16 ar  
    28   15   23 ar  
    29   16   17 1   
    30   16   20 ar  
    31   17   18 2   
    32   18   19 1   
    33   19   32 1   
    34   19   33 1   
    35   20   21 ar  
    36   20   34 1   
    37   21   22 ar  
    38   22   23 ar  
    39   22   35 1   
    40   23   36 1   
@<TRIPOS>SUBSTRUCTURE
     1 361         1 TEMP              0 ****  ****    0 ROOT
