@<TRIPOS>MOLECULE
362
   30    33     1     0     0
SMALL
bcc


@<TRIPOS>ATOM
      1 C4          0.0470   -0.4020    0.0750 ca        1 362      0.419200
      2 C6         -0.0570   -0.0050    2.3420 ca        1 362      0.391200
      3 C7          2.1520   -0.0810   -1.2200 cc        1 362     -0.184000
      4 C8          3.2440    0.7350   -1.5440 cd        1 362     -0.079100
      5 C15         2.1570   -2.1660   -4.7660 ca        1 362      0.298900
      6 C17         0.2270   -3.6020   -4.1490 cc        1 362     -0.321800
      7 C22        -0.8120   -4.1660   -3.3020 cc        1 362      0.343200
      8 C1          1.2990    0.3630    2.3940 ca        1 362     -0.247300
      9 C2          2.0420    0.3370    1.2140 ca        1 362     -0.097000
     10 C3          1.4190   -0.0510    0.0160 ca        1 362     -0.127100
     11 N5         -0.6780   -0.3820    1.2070 nb        1 362     -0.665000
     12 N9          3.7330    0.4450   -2.8130 na        1 362     -0.273100
     13 C11         2.9570   -0.5850   -3.3550 ca        1 362      0.298500
     14 C12         1.9310   -0.9500   -2.3660 ca        1 362      0.330800
     15 N13         1.0340   -1.9290   -2.6060 nb        1 362     -0.600000
     16 C14         1.1440   -2.5420   -3.8090 ca        1 362      0.387500
     17 N16         3.0620   -1.2050   -4.5680 nb        1 362     -0.628000
     18 C18         0.1270   -4.3220   -5.3570 cd        1 362     -0.125300
     19 N19        -0.9110   -5.2330   -5.1800 na        1 362     -0.018600
     20 N21        -1.4690   -5.1460   -3.9680 nd        1 362     -0.517800
     21 H1         -0.4960   -0.7160   -0.8350 h4        1 362      0.042100
     22 H2         -0.6810   -0.0010    3.2530 h4        1 362      0.021100
     23 H3          3.7070    1.5210   -0.9400 h4        1 362      0.175000
     24 H4          2.2170   -2.6870   -5.7370 h4        1 362      0.028100
     25 H5         -1.0570   -3.8740   -2.2790 h4        1 362      0.063100
     26 H6          1.7600    0.6590    3.3450 ha        1 362      0.141000
     27 H7          3.1070    0.6110    1.2210 ha        1 362      0.131000
     28 H8          4.4870    0.8920   -3.2680 hn        1 362      0.314700
     29 H9          0.6920   -4.2550   -6.2860 h4        1 362      0.177000
     30 H10        -1.2440   -5.8950   -5.8390 hn        1 362      0.323700
@<TRIPOS>BOND
     1    1   10 ar  
     2    1   11 ar  
     3    1   21 1   
     4    2    8 ar  
     5    2   11 ar  
     6    2   22 1   
     7    3    4 2   
     8    3   10 1   
     9    3   14 1   
    10    4   12 1   
    11    4   23 1   
    12    5   16 ar  
    13    5   17 ar  
    14    5   24 1   
    15    6    7 1   
    16    6   16 1   
    17    6   18 2   
    18    7   20 2   
    19    7   25 1   
    20    8    9 ar  
    21    8   26 1   
    22    9   10 ar  
    23    9   27 1   
    24   12   13 1   
    25   12   28 1   
    26   13   14 ar  
    27   13   17 ar  
    28   14   15 ar  
    29   15   16 ar  
    30   18   19 1   
    31   18   29 1   
    32   19   20 1   
    33   19   30 1   
@<TRIPOS>SUBSTRUCTURE
     1 362         1 TEMP              0 ****  ****    0 ROOT
