@<TRIPOS>MOLECULE
364
   45    46     1     0     0
SMALL
bcc


@<TRIPOS>ATOM
      1 CAM         0.1030    1.0270    0.7620 ca        1 364     -0.124500
      2 CAI         1.4900    0.9100    0.8240 ca        1 364     -0.151500
      3 CAH         2.0730   -0.2870    1.2320 ca        1 364     -0.169000
      4 CAJ         1.2580   -1.3680    1.5700 ca        1 364     -0.151500
      5 CAN        -0.1300   -1.2600    1.5140 ca        1 364     -0.124500
      6 CAV        -0.7280   -0.0480    1.1170 cp        1 364     -0.003000
      7 CAW        -2.1850    0.0810    1.0670 cq        1 364     -0.068000
      8 CAS        -2.9840   -1.0620    0.9610 ca        1 364     -0.112000
      9 CAO        -2.8040    1.3420    1.1460 ca        1 364     -0.178000
     10 CAK        -4.1900    1.4390    1.1050 ca        1 364     -0.168000
     11 CAP        -4.9820    0.2970    0.9930 ca        1 364     -0.148000
     12 CAX        -4.3910   -0.9720    0.9240 ca        1 364      0.048000
     13 CAY        -5.1880   -2.1930    0.8560 c2        1 364      0.001000
     14 CAT        -4.6910   -3.2790    0.1710 c2        1 364     -0.213000
     15 CAQ        -6.4460   -2.2680    1.5120 c2        1 364     -0.495000
     16 CAL        -7.0610   -3.5330    1.5340 c2        1 364     -0.033000
     17 CAR        -6.5430   -4.6060    0.8640 c2        1 364     -0.313000
     18 NAZ        -5.3760   -4.5220    0.0280 na        1 364     -0.120000
     19 CAU        -4.5150   -5.6980    0.0620 c3        1 364     -0.109000
     20 CBA        -3.5820   -6.1060    1.2020 c2        1 364     -0.332000
     21 PBB        -3.4950   -9.7640    0.8830 p3        1 364      2.456000
     22 OAD        -2.3060   -9.9910    1.7300 o         1 364     -1.155667
     23 OAE        -3.3200   -9.6270   -0.5790 o         1 364     -1.155667
     24 OAA        -4.8240  -10.1580    1.3990 o         1 364     -1.155667
     25 PBC        -2.4300   -5.2500    2.2770 p5        1 364      1.973000
     26 OAF        -1.8710   -4.0320    1.6370 o         1 364     -0.852500
     27 OAG        -1.2100   -6.3320    2.2190 oh        1 364     -0.831000
     28 OAB        -2.9320   -5.2610    3.6660 o         1 364     -0.852500
     29 OAC        -3.4910   -7.3460    1.3840 o         1 364     -0.413000
     30 HAM        -0.3400    1.9720    0.4170 ha        1 364      0.176000
     31 HAI         2.1230    1.7630    0.5430 ha        1 364      0.111500
     32 HAH         3.1660   -0.3820    1.2810 ha        1 364      0.095000
     33 HAJ         1.7060   -2.3250    1.8770 ha        1 364      0.111500
     34 HAN        -0.7550   -2.1510    1.7650 ha        1 364      0.176000
     35 HAS        -2.5280   -2.0770    0.9350 ha        1 364      0.225000
     36 HAO        -2.2000    2.2510    1.2620 ha        1 364      0.088000
     37 HAK        -4.6660    2.4280    1.1680 ha        1 364      0.081000
     38 HAP        -6.0780    0.3790    0.9690 ha        1 364      0.126000
     39 HAT        -3.7120   -3.2510   -0.3320 h4        1 364      0.118000
     40 HAQ        -6.8600   -1.4180    2.0510 ha        1 364      0.068000
     41 HAL        -7.9960   -3.6600    2.1010 ha        1 364      0.052000
     42 HAR        -6.9930   -5.6050    0.9110 h4        1 364      0.101000
     43 HAU1       -3.8290   -5.6000   -0.8340 h1        1 364      0.084500
     44 HAU2       -5.1920   -6.5820   -0.1310 h1        1 364      0.084500
     45 HOAC       -1.4630   -7.2330    2.3980 ho        1 364      0.254000
@<TRIPOS>BOND
     1    1    2 1   
     2    1    6 1   
     3    1   30 1   
     4    2    3 1   
     5    2   31 1   
     6    3    4 1   
     7    3   32 1   
     8    4    5 1   
     9    4   33 1   
    10    5    6 1   
    11    5   34 1   
    12    6    7 1   
    13    7    8 1   
    14    7    9 1   
    15    8   12 1   
    16    8   35 1   
    17    9   10 1   
    18    9   36 1   
    19   10   11 1   
    20   10   37 1   
    21   11   12 1   
    22   11   38 1   
    23   12   13 1   
    24   13   14 1   
    25   13   15 1   
    26   14   18 1   
    27   14   39 1   
    28   15   16 1   
    29   15   40 1   
    30   16   17 1   
    31   16   41 1   
    32   17   18 1   
    33   17   42 1   
    34   18   19 1   
    35   19   20 1   
    36   19   43 1   
    37   19   44 1   
    38   20   25 1   
    39   20   29 1   
    40   21   22 1   
    41   21   23 1   
    42   21   24 1   
    43   25   26 1   
    44   25   27 1   
    45   25   28 1   
    46   27   45 1   
@<TRIPOS>SUBSTRUCTURE
     1 364         1 TEMP              0 ****  ****    0 ROOT
