@<TRIPOS>MOLECULE
364
   45    46     1     0     0
SMALL
bcc


@<TRIPOS>ATOM
      1 CAM       -81.5530   16.5610  -43.3360 ca        1 364     -0.136500
      2 CAI       -81.9540   15.6100  -44.2710 ca        1 364     -0.142500
      3 CAH       -81.7490   14.2520  -44.0280 ca        1 364     -0.175000
      4 CAJ       -81.1410   13.8510  -42.8380 ca        1 364     -0.142500
      5 CAN       -80.7410   14.7990  -41.9000 ca        1 364     -0.136500
      6 CAV       -80.9370   16.1710  -42.1340 cp        1 364      0.032000
      7 CAW       -80.5060   17.1660  -41.1520 cq        1 364     -0.019000
      8 CAS       -81.2520   18.3160  -40.9520 ca        1 364     -0.221000
      9 CAO       -79.3270   16.9370  -40.4150 ca        1 364     -0.336000
     10 CAK       -78.9390   17.8970  -39.4760 ca        1 364     -0.082000
     11 CAP       -79.6700   19.0430  -39.2650 ca        1 364     -0.250000
     12 CAX       -80.8720   19.3230  -40.0010 ca        1 364      0.052000
     13 CAY       -81.6000   20.4910  -39.8050 c2        1 364     -0.240000
     14 CAT       -82.7490   20.8280  -40.6050 c2        1 364     -0.010000
     15 CAQ       -81.2510   21.4890  -38.7920 c2        1 364     -0.225000
     16 CAL       -81.9340   22.6590  -38.7100 c2        1 364     -0.067000
     17 CAR       -83.0120   22.9570  -39.5830 c2        1 364     -0.482000
     18 NAZ       -83.4010   21.9940  -40.5090 na        1 364      0.045000
     19 CAU       -84.4790   22.3340  -41.4200 c3        1 364     -0.138000
     20 CBA       -85.5890   21.3580  -41.6870 c2        1 364     -0.370000
     21 PBB       -86.8020   22.0850  -42.6590 p5        1 364      1.941000
     22 OAD       -88.1190   21.1650  -42.3470 oh        1 364     -0.809000
     23 OAE       -86.5010   21.7600  -44.0730 o         1 364     -0.842000
     24 OAA       -87.0520   23.4530  -42.1530 o         1 364     -0.842000
     25 PBC       811.5420 -228.8280  435.9590 p3        1 364      2.361000
     26 OAF       812.2790 -228.6340  434.6970 o         1 364     -1.120000
     27 OAG       811.4660 -227.7350  436.9440 o         1 364     -1.120000
     28 OAB       810.8820 -230.1160  436.2360 o         1 364     -1.120000
     29 OAC       -85.6200   20.1870  -41.2990 o         1 364     -0.267000
     30 HAM       -81.7180   17.6310  -43.5320 ha        1 364      0.139500
     31 HAI       -82.4400   15.9320  -45.2030 ha        1 364      0.106500
     32 HAH       -82.0670   13.5040  -44.7660 ha        1 364      0.101000
     33 HAJ       -80.9830   12.7830  -42.6380 ha        1 364      0.106500
     34 HAN       -80.2710   14.4800  -40.9580 ha        1 364      0.139500
     35 HAS       -82.1820   18.4480  -41.5200 ha        1 364      0.102000
     36 HAO       -78.7230   16.0420  -40.5850 ha        1 364      0.082000
     37 HAK       -78.0190   17.7260  -38.8950 ha        1 364      0.066000
     38 HAP       -79.3200   19.7690  -38.5210 ha        1 364      0.095000
     39 HAT       -83.1490   20.1100  -41.3430 h4        1 364      0.143000
     40 HAQ       -80.4420   21.2630  -38.0900 ha        1 364      0.090000
     41 HAL       -81.6820   23.4210  -37.9590 ha        1 364      0.075000
     42 HAR       -83.5790   23.8870  -39.5440 h4        1 364      0.124000
     43 HAU1      -84.0340   22.5700  -42.4330 h1        1 364      0.135000
     44 HAU2      -84.9960   23.2750  -41.0500 h1        1 364      0.135000
     45 HOAC      -88.1860   20.4310  -42.9470 ho        1 364      0.224000
@<TRIPOS>BOND
     1    1    2 1   
     2    1    6 1   
     3    1   30 1   
     4    2    3 1   
     5    2   31 1   
     6    3    4 1   
     7    3   32 1   
     8    4    5 1   
     9    4   33 1   
    10    5    6 1   
    11    5   34 1   
    12    6    7 1   
    13    7    8 1   
    14    7    9 1   
    15    8   12 1   
    16    8   35 1   
    17    9   10 1   
    18    9   36 1   
    19   10   11 1   
    20   10   37 1   
    21   11   12 1   
    22   11   38 1   
    23   12   13 1   
    24   13   14 1   
    25   13   15 1   
    26   14   18 1   
    27   14   39 1   
    28   15   16 1   
    29   15   40 1   
    30   16   17 1   
    31   16   41 1   
    32   17   18 1   
    33   17   42 1   
    34   18   19 1   
    35   19   20 1   
    36   19   43 1   
    37   19   44 1   
    38   20   21 1   
    39   20   29 1   
    40   21   22 1   
    41   21   23 1   
    42   21   24 1   
    43   22   45 1   
    44   25   26 1   
    45   25   27 1   
    46   25   28 1   
@<TRIPOS>SUBSTRUCTURE
     1 364         1 TEMP              0 ****  ****    0 ROOT
