@<TRIPOS>MOLECULE
364
   45    46     1     0     0
SMALL
bcc


@<TRIPOS>ATOM
      1 CAM         1.3440   -5.6140    6.0550 ca        1 364     -0.124500
      2 CAI         0.1940   -6.3100    6.4200 ca        1 364     -0.151500
      3 CAH        -1.0620   -5.8110    6.0840 ca        1 364     -0.169000
      4 CAJ        -1.1570   -4.6150    5.3710 ca        1 364     -0.151500
      5 CAN        -0.0120   -3.9100    5.0040 ca        1 364     -0.124500
      6 CAV         1.2610   -4.4000    5.3540 cp        1 364     -0.003000
      7 CAW         2.4690   -3.6610    4.9860 cq        1 364     -0.068000
      8 CAS         2.4330   -2.7460    3.9280 ca        1 364     -0.112000
      9 CAO         3.6720   -3.8400    5.6930 ca        1 364     -0.178000
     10 CAK         4.8050   -3.1210    5.3290 ca        1 364     -0.168000
     11 CAP         4.7650   -2.2140    4.2710 ca        1 364     -0.148000
     12 CAX         3.5760   -2.0090    3.5570 ca        1 364      0.048000
     13 CAY         3.4830   -1.0330    2.4760 c2        1 364      0.001000
     14 CAT         2.6240   -1.2760    1.4270 c2        1 364     -0.213000
     15 CAQ         4.2470    0.1640    2.5200 c2        1 364     -0.495000
     16 CAL         3.9660    1.1180    1.5250 c2        1 364     -0.033000
     17 CAR         3.0940    0.8670    0.5010 c2        1 364     -0.313000
     18 NAZ         2.4500   -0.4040    0.3110 na        1 364     -0.120000
     19 CAU         1.0840   -0.3270   -0.1920 c3        1 364     -0.109000
     20 CBA        -0.1510    0.1010    0.6010 c2        1 364     -0.332000
     21 PBB        -2.3050    1.5340   -2.0060 p3        1 364      2.456000
     22 OAD        -3.5600    1.5330   -1.2240 o         1 364     -1.155667
     23 OAE        -2.0040    0.3810   -2.8810 o         1 364     -1.155667
     24 OAA        -1.6420    2.8250   -2.2900 o         1 364     -1.155667
     25 PBC        -0.7910   -0.2270    2.2440 p5        1 364      1.973000
     26 OAF        -0.3450   -1.5460    2.7620 o         1 364     -0.852500
     27 OAG        -2.3550   -0.4610    1.8410 oh        1 364     -0.831000
     28 OAB        -0.7490    1.0050    3.0570 o         1 364     -0.852500
     29 OAC        -0.9990    0.7480   -0.0640 o         1 364     -0.413000
     30 HAM         2.3280   -6.0330    6.3110 ha        1 364      0.176000
     31 HAI         0.2810   -7.2580    6.9700 ha        1 364      0.111500
     32 HAH        -1.9700   -6.3580    6.3700 ha        1 364      0.095000
     33 HAJ        -2.1420   -4.2190    5.0820 ha        1 364      0.111500
     34 HAN        -0.1200   -2.9690    4.4110 ha        1 364      0.176000
     35 HAS         1.4880   -2.5530    3.3730 ha        1 364      0.225000
     36 HAO         3.7180   -4.5280    6.5470 ha        1 364      0.088000
     37 HAK         5.7410   -3.2650    5.8880 ha        1 364      0.081000
     38 HAP         5.6620   -1.6430    3.9930 ha        1 364      0.126000
     39 HAT         2.0100   -2.1890    1.3780 h4        1 364      0.118000
     40 HAQ         4.9370    0.3720    3.3350 ha        1 364      0.068000
     41 HAL         4.4710    2.0950    1.5660 ha        1 364      0.052000
     42 HAR         2.8380    1.6190   -0.2540 h4        1 364      0.101000
     43 HAU1        0.8320   -1.3710   -0.5520 h1        1 364      0.084500
     44 HAU2        1.1280    0.3390   -1.1030 h1        1 364      0.084500
     45 HOAC       -2.7370    0.2230    1.2990 ho        1 364      0.254000
@<TRIPOS>BOND
     1    1    2 1   
     2    1    6 1   
     3    1   30 1   
     4    2    3 1   
     5    2   31 1   
     6    3    4 1   
     7    3   32 1   
     8    4    5 1   
     9    4   33 1   
    10    5    6 1   
    11    5   34 1   
    12    6    7 1   
    13    7    8 1   
    14    7    9 1   
    15    8   12 1   
    16    8   35 1   
    17    9   10 1   
    18    9   36 1   
    19   10   11 1   
    20   10   37 1   
    21   11   12 1   
    22   11   38 1   
    23   12   13 1   
    24   13   14 1   
    25   13   15 1   
    26   14   18 1   
    27   14   39 1   
    28   15   16 1   
    29   15   40 1   
    30   16   17 1   
    31   16   41 1   
    32   17   18 1   
    33   17   42 1   
    34   18   19 1   
    35   19   20 1   
    36   19   43 1   
    37   19   44 1   
    38   20   25 1   
    39   20   29 1   
    40   21   22 1   
    41   21   23 1   
    42   21   24 1   
    43   25   26 1   
    44   25   27 1   
    45   25   28 1   
    46   27   45 1   
@<TRIPOS>SUBSTRUCTURE
     1 364         1 TEMP              0 ****  ****    0 ROOT
