@<TRIPOS>MOLECULE
364
   45    36     1     0     0
SMALL
bcc


@<TRIPOS>ATOM
      1 CAM         0.2430   -4.6540   -1.8420 c1        1 364     -0.216500
      2 CAI        -0.2160   -5.9850   -1.8620 c1        1 364     -0.152000
      3 CAH         0.1790   -6.8850   -0.8500 c1        1 364     -0.152000
      4 CAJ         1.0250   -6.4550    0.1750 c1        1 364     -0.152000
      5 CAN         1.4830   -5.1250    0.1960 c1        1 364     -0.152000
      6 CAV         1.0870   -4.2250   -0.8190 c1        1 364     -0.003000
      7 CAW         1.5420   -2.8810   -0.7930 c1        1 364     -0.003000
      8 CAS         0.8560   -1.9290   -0.0460 c1        1 364     -0.216500
      9 CAO         2.6860   -2.5130   -1.5200 c1        1 364     -0.152000
     10 CAK         3.1320   -1.1990   -1.4920 c1        1 364     -0.152000
     11 CAP         2.4400   -0.2370   -0.7380 c1        1 364     -0.216500
     12 CAX         1.3090   -0.6000   -0.0200 c1        1 364     -0.003000
     13 CAY         0.6280    0.3560    0.7410 c1        1 364     -0.003000
     14 CAT        -0.3170    1.1820    0.1390 c1        1 364     -0.257000
     15 CAQ         0.8900    0.4790    2.0960 c1        1 364     -0.216500
     16 CAL         0.2200    1.4130    2.8400 c1        1 364     -0.152000
     17 CAR        -0.7410    2.2520    2.2230 c1        1 364     -0.152000
     18 NAZ        -0.9970    2.1310    0.8970 n2        1 364     -0.082000
     19 CAU        -2.0410    2.9130    0.2980 c3        1 364     -0.175000
     20 CBA        -1.6290    4.3650    0.2690 c3        1 364     -0.362000
     21 PBB        -2.8190    5.3510    1.2420 p5        1 364      1.517000
     22 OAD        -2.3990    6.8070    1.2330 o         1 364     -0.769000
     23 OAE        -4.1960    5.2200    0.6330 o         1 364     -0.769000
     24 OAA        -2.8470    4.8420    2.6720 o         1 364     -0.769000
     25 PBC        -1.6080    4.9590   -1.4680 p5        1 364      1.517000
     26 OAF        -1.8680    6.4610   -1.4990 o         1 364     -0.769000
     27 OAG        -0.2370    4.6650   -2.0910 o         1 364     -0.769000
     28 OAB        -2.6920    4.2390   -2.2610 o         1 364     -0.769000
     29 OAC        -0.3600    4.4980    0.8180 oh        1 364     -0.298000
     30 HAM        -0.0630   -4.0100   -2.5390 ha        1 364      0.123250
     31 HAI        -0.7980   -6.2810   -2.5680 ha        1 364      0.109250
     32 HAH        -0.1550   -7.8180   -0.8570 ha        1 364      0.109250
     33 HAJ         1.3040   -7.0910    0.8900 ha        1 364      0.109250
     34 HAN         2.0010   -4.8020    0.9570 ha        1 364      0.109250
     35 HAS         0.0750   -2.1800    0.4510 ha        1 364      0.123250
     36 HAO         3.1670   -3.1790   -2.0430 ha        1 364      0.109250
     37 HAK         3.9180   -0.9470   -1.9910 ha        1 364      0.109250
     38 HAP         2.7510    0.6760   -0.7200 ha        1 364      0.123250
     39 HAT        -0.4990    1.1020   -0.8560 ha        1 364      0.103000
     40 HAQ         1.5560   -0.1030    2.5220 ha        1 364      0.123250
     41 HAL         0.4080    1.5030    3.8150 ha        1 364      0.109250
     42 HAR        -1.2230    2.9230    2.7560 ha        1 364      0.109250
     43 HAU1       -2.8750    2.8150    0.8300 h1        1 364      0.084500
     44 HAU2       -2.1980    2.6000   -0.6170 h1        1 364      0.084500
     45 HOAC       -0.1200    5.3460    0.7990 ho        1 364      0.212000
@<TRIPOS>BOND
     1    1    6 1   
     2    1   30 1   
     3    2    3 1   
     4    2   31 1   
     5    3   32 1   
     6    4    5 1   
     7    4   33 1   
     8    5   34 1   
     9    7    8 1   
    10    8   35 1   
    11    9   10 1   
    12    9   36 1   
    13   10   37 1   
    14   11   12 1   
    15   11   38 1   
    16   13   15 1   
    17   14   18 1   
    18   14   39 1   
    19   15   40 1   
    20   16   17 1   
    21   16   41 1   
    22   17   42 1   
    23   18   19 1   
    24   19   20 1   
    25   19   43 1   
    26   19   44 1   
    27   20   21 1   
    28   20   25 1   
    29   20   29 1   
    30   21   22 1   
    31   21   23 1   
    32   21   24 1   
    33   25   26 1   
    34   25   27 1   
    35   25   28 1   
    36   29   45 1   
@<TRIPOS>SUBSTRUCTURE
     1 364         1 TEMP              0 ****  ****    0 ROOT
