@<TRIPOS>MOLECULE
367
   52    54     1     0     0
SMALL
bcc


@<TRIPOS>ATOM
      1 C01         0.0790   -0.1930   -0.5730 ca        1 367     -0.071000
      2 C02         1.4510   -0.2560   -0.1240 ca        1 367      0.063600
      3 C03         1.7540    0.0500    1.1990 ca        1 367     -0.112000
      4 C04         0.7330    0.3900    2.1100 ca        1 367     -0.072000
      5 C05        -0.5820    0.4320    1.7130 ca        1 367     -0.138000
      6 C06        -0.9300    0.1530    0.3670 ca        1 367      0.000000
      7 C10        -0.3060   -0.4260   -1.9200 ca        1 367     -0.054000
      8 C11        -1.6250   -0.3150   -2.3120 ca        1 367     -0.248900
      9 C13        -2.2850    0.2480   -0.0630 ca        1 367     -0.080000
     10 C14        -2.6320    0.0250   -1.3710 ca        1 367     -0.140000
     11 C17        -1.9830   -0.5090   -3.7330 ce        1 367      0.583800
     12 N18        -1.6260    0.0840   -4.8030 n2        1 367     -0.714100
     13 N19        -2.9530   -1.6510   -3.9070 n4        1 367     -0.823600
     14 N20         2.4610   -0.6260   -1.0300 n         1 367     -0.484100
     15 C21         3.6140    0.1440   -1.2570 c         1 367      0.679700
     16 O22         4.1820    0.7670   -0.3510 o         1 367     -0.528100
     17 C27         4.0980    0.1390   -2.6690 ca        1 367     -0.175600
     18 C28         5.4650    0.0680   -2.9700 ca        1 367      0.009000
     19 C29         5.8750    0.0850   -4.3030 ca        1 367     -0.154000
     20 C30         4.9370    0.1660   -5.3320 ca        1 367      0.040000
     21 C31         3.5660    0.2460   -5.0470 ca        1 367     -0.419500
     22 C32         3.1710    0.2510   -3.7010 ca        1 367     -0.007000
     23 S36         2.3890    0.3180   -6.2030 sy        1 367      1.659800
     24 O38         2.3130   -1.3010   -6.6470 os        1 367     -0.566500
     25 O42         1.1390    0.5380   -5.6190 o         1 367     -0.675800
     26 O43         2.7530    0.9890   -7.3440 o         1 367     -0.675800
     27 C44         1.1420   -1.8490   -7.2030 c3        1 367      0.196400
     28 C45         0.3990   -2.6480   -6.1410 c3        1 367     -0.144400
     29 C46        -1.0140   -2.9640   -6.5940 c3        1 367      0.126400
     30 O47        -1.7560   -3.5620   -5.5370 oh        1 367     -0.673800
     31 H03         2.8040    0.0470    1.5440 ha        1 367      0.181000
     32 H04         1.0110    0.6190    3.1520 ha        1 367      0.160000
     33 H05        -1.3790    0.6920    2.4270 ha        1 367      0.154000
     34 H10         0.4430   -0.6850   -2.6850 ha        1 367      0.134000
     35 H13        -3.0530    0.5200    0.6810 ha        1 367      0.159000
     36 H14        -3.6750    0.1460   -1.6970 ha        1 367      0.134000
     37 H18        -0.9380    0.8130   -4.7760 hn        1 367      0.515400
     38 H191       -3.3560   -1.6740   -4.8520 hn        1 367      0.469467
     39 H192       -3.6920   -1.5720   -3.2050 hn        1 367      0.469467
     40 H20         2.1790   -1.2300   -1.7690 hn        1 367      0.309500
     41 H28         6.2030    0.0090   -2.1510 ha        1 367      0.173000
     42 H29         6.9500    0.0350   -4.5460 ha        1 367      0.167000
     43 H30         5.2740    0.1720   -6.3850 ha        1 367      0.168000
     44 H32         2.0950    0.3730   -3.4770 ha        1 367      0.146000
     45 H441        0.4890   -1.0310   -7.6140 h1        1 367      0.060700
     46 H442        1.4840   -2.5160   -8.0410 h1        1 367      0.060700
     47 H451        0.9590   -3.5940   -5.9230 hc        1 367      0.054700
     48 H452        0.3630   -2.0550   -5.1900 hc        1 367      0.054700
     49 H461       -1.5800   -2.0230   -6.8360 h1        1 367      0.064200
     50 H462       -1.0090   -3.6360   -7.4920 h1        1 367      0.064200
     51 H47        -1.4300   -4.4630   -5.4270 ho        1 367      0.430000
     52 H193       -2.4310   -2.5300   -3.7720 hn        1 367      0.469467
@<TRIPOS>BOND
     1    1    2 ar  
     2    1    6 ar  
     3    1    7 ar  
     4    2    3 ar  
     5    2   14 1   
     6    3    4 ar  
     7    3   31 1   
     8    4    5 ar  
     9    4   32 1   
    10    5    6 ar  
    11    5   33 1   
    12    6    9 ar  
    13    7    8 ar  
    14    7   34 1   
    15    8   10 ar  
    16    8   11 1   
    17    9   10 ar  
    18    9   35 1   
    19   10   36 1   
    20   11   12 2   
    21   11   13 1   
    22   12   37 1   
    23   13   38 1   
    24   13   39 1   
    25   13   52 1   
    26   14   15 1   
    27   14   40 1   
    28   15   16 2   
    29   15   17 1   
    30   17   18 ar  
    31   17   22 ar  
    32   18   19 ar  
    33   18   41 1   
    34   19   20 ar  
    35   19   42 1   
    36   20   21 ar  
    37   20   43 1   
    38   21   22 ar  
    39   21   23 1   
    40   22   44 1   
    41   23   24 1   
    42   23   25 2   
    43   23   26 2   
    44   24   27 1   
    45   27   28 1   
    46   27   45 1   
    47   27   46 1   
    48   28   29 1   
    49   28   47 1   
    50   28   48 1   
    51   29   30 1   
    52   29   49 1   
    53   29   50 1   
    54   30   51 1   
@<TRIPOS>SUBSTRUCTURE
     1 367         1 TEMP              0 ****  ****    0 ROOT
