@<TRIPOS>MOLECULE
367
   51    44     1     0     0
SMALL
bcc


@<TRIPOS>ATOM
      1 C01        -1.3000    3.2380    2.7780 c1        1 367     -0.037500
      2 C02        -0.5320    2.1290    3.1600 c1        1 367      0.080000
      3 C03        -0.5590    1.6900    4.4730 c1        1 367     -0.150000
      4 C04        -1.3530    2.3530    5.4160 c1        1 367     -0.120000
      5 C05        -2.1070    3.4400    5.0410 c1        1 367     -0.120000
      6 C06        -2.0820    3.8880    3.7140 c1        1 367     -0.037500
      7 C10        -1.2710    3.7040    1.4300 c1        1 367     -0.100500
      8 C11        -2.0320    4.8180    1.0590 c1        1 367     -0.115000
      9 C13        -2.8530    5.0140    3.3380 c1        1 367     -0.100500
     10 C14        -2.8250    5.4740    2.0130 c1        1 367     -0.116000
     11 C17        -1.1840    5.7010    0.1270 c2        1 367      0.109000
     12 N18        -0.1740    6.3540    0.6000 n1        1 367     -0.295000
     13 N19        -1.5010    5.7950   -1.2220 n3        1 367     -0.329000
     14 N20        -0.4400    1.3610    1.9230 n         1 367     -0.324000
     15 C21        -0.3430   -0.0940    1.9730 c2        1 367      0.351000
     16 O22        -0.3380   -0.6700    3.0540 o         1 367     -0.330000
     17 C27        -0.3780   -0.9150    0.6610 c2        1 367     -0.156000
     18 C28        -1.4930   -0.8320   -0.1910 c2        1 367     -0.034000
     19 C29        -1.5070   -1.5390   -1.3910 c1        1 367     -0.163000
     20 C30        -0.4280   -2.3190   -1.7420 c1        1 367      0.016000
     21 C31         0.6870   -2.4010   -0.8870 c1        1 367     -0.845000
     22 C32         0.6980   -1.6930    0.3110 c1        1 367      0.045000
     23 S36         2.0140   -3.4860   -1.2760 s4        1 367      2.067800
     24 O38         2.1680   -3.6040   -2.7450 o         1 367     -0.703000
     25 O42         3.2740   -3.0410   -0.6390 o         1 367     -0.549900
     26 O43         1.8300   -4.8010   -0.6520 o         1 367     -0.549900
     27 C44         3.0230   -4.6810   -3.2060 c3        1 367      0.027000
     28 C45         2.4680   -5.2470   -4.5160 c3        1 367     -0.206000
     29 C46         3.2260   -6.5190   -4.8790 c3        1 367     -0.014000
     30 O47         2.4960   -7.2460   -5.8580 oh        1 367     -0.324000
     31 H03        -0.0110    0.8990    4.7490 ha        1 367      0.170000
     32 H04        -1.3710    2.0460    6.3320 ha        1 367      0.139000
     33 H05        -2.6840    3.9210    5.7310 ha        1 367      0.139000
     34 H10        -0.7150    3.2440    0.7630 ha        1 367      0.139500
     35 H13        -3.4090    5.4760    4.0090 ha        1 367      0.139500
     36 H14        -3.3580    6.2520    1.7540 ha        1 367      0.142000
     37 H18         0.0310    6.2930    1.4660 DU        1 367      0.154000
     38 H191       -1.0780    6.3660   -1.7300 hn        1 367      0.190500
     39 H192       -2.2090    5.3200   -1.5610 hn        1 367      0.190500
     40 H20        -0.3260    1.8000    1.1180 hn        1 367      0.236000
     41 H28        -2.2570   -0.2810    0.0570 ha        1 367      0.146000
     42 H29        -2.3050   -1.4780   -2.0000 ha        1 367      0.152000
     43 H30        -0.4350   -2.8250   -2.6000 ha        1 367      0.165000
     44 H32         1.4670   -1.7500    0.9010 ha        1 367      0.180000
     45 H441        3.9360   -4.3350   -3.3590 h1        1 367      0.095000
     46 H442        3.0520   -5.4220   -2.4990 h1        1 367      0.095000
     47 H451        2.5820   -4.5780   -5.2390 hc        1 367      0.115000
     48 H452        1.5290   -5.4490   -4.4090 hc        1 367      0.115000
     49 H461        4.1000   -6.2850   -5.2380 h1        1 367      0.060500
     50 H462        3.3420   -7.0900   -4.0530 h1        1 367      0.060500
     51 H47         2.9340   -7.9940   -6.0580 ho        1 367      0.200000
@<TRIPOS>BOND
     1    1    6 1   
     2    1    7 1   
     3    2    3 1   
     4    2   14 1   
     5    3   31 1   
     6    4    5 1   
     7    4   32 1   
     8    5   33 1   
     9    6    9 1   
    10    7   34 1   
    11    8   10 1   
    12    8   11 1   
    13    9   35 1   
    14   10   36 1   
    15   11   12 1   
    16   11   13 1   
    17   13   38 1   
    18   13   39 1   
    19   14   15 1   
    20   14   40 1   
    21   15   16 1   
    22   15   17 1   
    23   17   18 1   
    24   17   22 1   
    25   18   19 1   
    26   18   41 1   
    27   19   42 1   
    28   20   21 1   
    29   20   43 1   
    30   21   23 1   
    31   22   44 1   
    32   23   25 1   
    33   23   26 1   
    34   24   27 1   
    35   27   28 1   
    36   27   45 1   
    37   27   46 1   
    38   28   29 1   
    39   28   47 1   
    40   28   48 1   
    41   29   30 1   
    42   29   49 1   
    43   29   50 1   
    44   30   51 1   
@<TRIPOS>SUBSTRUCTURE
     1 367         1 TEMP              0 ****  ****    0 ROOT
