@<TRIPOS>MOLECULE
367
   52    54     1     0     0
SMALL
bcc


@<TRIPOS>ATOM
      1 C01         0.1000   -0.2140   -0.5640 ca        1 367     -0.071000
      2 C02         1.4780   -0.2560   -0.1300 ca        1 367      0.063600
      3 C03         1.7900    0.0500    1.1910 ca        1 367     -0.112000
      4 C04         0.7730    0.3690    2.1140 ca        1 367     -0.072000
      5 C05        -0.5470    0.3920    1.7310 ca        1 367     -0.138000
      6 C06        -0.9050    0.1130    0.3880 ca        1 367      0.000000
      7 C10        -0.2960   -0.4490   -1.9080 ca        1 367     -0.054000
      8 C11        -1.6200   -0.3570   -2.2850 ca        1 367     -0.248900
      9 C13        -2.2650    0.1870   -0.0280 ca        1 367     -0.080000
     10 C14        -2.6220   -0.0360   -1.3320 ca        1 367     -0.140000
     11 C17        -1.9910   -0.5520   -3.7030 ce        1 367      0.583800
     12 N18        -1.6540    0.0500   -4.7740 n2        1 367     -0.714100
     13 N19        -2.9440   -1.7090   -3.8700 nz        1 367     -0.823600
     14 N20         2.4840   -0.6070   -1.0480 ns        1 367     -0.484100
     15 C21         3.6210    0.1820   -1.2840 c         1 367      0.679700
     16 O22         4.1890    0.8110   -0.3820 o         1 367     -0.528100
     17 C27         4.0900    0.1910   -2.7020 ca        1 367     -0.175600
     18 C28         5.4550    0.1430   -3.0170 ca        1 367      0.009000
     19 C29         5.8510    0.1710   -4.3540 ca        1 367     -0.154000
     20 C30         4.9000    0.2390   -5.3730 ca        1 367      0.040000
     21 C31         3.5320    0.2970   -5.0730 ca        1 367     -0.419500
     22 C32         3.1510    0.2910   -3.7240 ca        1 367     -0.007000
     23 S36         2.3420    0.3540   -6.2160 sy        1 367      1.659800
     24 O38         2.2870   -1.2650   -6.6660 os        1 367     -0.566500
     25 O42         1.0940    0.5520   -5.6180 o         1 367     -0.675300
     26 O43         2.6820    1.0340   -7.3580 o         1 367     -0.675300
     27 C44         1.1190   -1.8300   -7.2100 c3        1 367      0.196400
     28 C45         0.4010   -2.6440   -6.1440 c3        1 367     -0.144400
     29 C46        -1.0110   -2.9820   -6.5820 c3        1 367      0.126400
     30 O47        -1.7320   -3.5950   -5.5190 oh        1 367     -0.673800
     31 H03         2.8430    0.0620    1.5250 ha        1 367      0.181000
     32 H04         1.0590    0.6000    3.1540 ha        1 367      0.160000
     33 H05        -1.3400    0.6370    2.4550 ha        1 367      0.154000
     34 H10         0.4500   -0.6930   -2.6820 ha        1 367      0.134000
     35 H13        -3.0290    0.4440    0.7250 ha        1 367      0.159000
     36 H14        -3.6710    0.0690   -1.6470 ha        1 367      0.134000
     37 H18        -0.9780    0.7900   -4.7520 hn        1 367      0.515400
     38 H191       -2.4060   -2.5790   -3.7440 hn        1 367      0.469467
     39 H192       -3.6760   -1.6440   -3.1610 hn        1 367      0.469467
     40 H20         2.2040   -1.2130   -1.7860 hn        1 367      0.309500
     41 H28         6.2020    0.0920   -2.2060 ha        1 367      0.173000
     42 H29         6.9230    0.1390   -4.6090 ha        1 367      0.167000
     43 H30         5.2260    0.2550   -6.4300 ha        1 367      0.168000
     44 H32         2.0750    0.3950   -3.4870 ha        1 367      0.146000
     45 H441        1.4630   -2.4890   -8.0550 h1        1 367      0.060700
     46 H442        0.4490   -1.0210   -7.6120 h1        1 367      0.060700
     47 H451        0.3650   -2.0540   -5.1900 hc        1 367      0.054700
     48 H452        0.9780   -3.5810   -5.9340 hc        1 367      0.054700
     49 H461       -1.5960   -2.0500   -6.8150 h1        1 367      0.064200
     50 H462       -1.0060   -3.6510   -7.4820 h1        1 367      0.064200
     51 H47        -1.3900   -4.4910   -5.4160 ho        1 367      0.430000
     52 H193       -3.3560   -1.7360   -4.8120 hn        1 367      0.469467
@<TRIPOS>BOND
     1    1    2 ar  
     2    1    6 ar  
     3    1    7 ar  
     4    2    3 ar  
     5    2   14 1   
     6    3    4 ar  
     7    3   31 1   
     8    4    5 ar  
     9    4   32 1   
    10    5    6 ar  
    11    5   33 1   
    12    6    9 ar  
    13    7    8 ar  
    14    7   34 1   
    15    8   10 ar  
    16    8   11 1   
    17    9   10 ar  
    18    9   35 1   
    19   10   36 1   
    20   11   12 2   
    21   11   13 1   
    22   12   37 1   
    23   13   38 1   
    24   13   39 1   
    25   13   52 1   
    26   14   15 1   
    27   14   40 1   
    28   15   16 2   
    29   15   17 1   
    30   17   18 ar  
    31   17   22 ar  
    32   18   19 ar  
    33   18   41 1   
    34   19   20 ar  
    35   19   42 1   
    36   20   21 ar  
    37   20   43 1   
    38   21   22 ar  
    39   21   23 1   
    40   22   44 1   
    41   23   24 1   
    42   23   25 2   
    43   23   26 2   
    44   24   27 1   
    45   27   28 1   
    46   27   45 1   
    47   27   46 1   
    48   28   29 1   
    49   28   47 1   
    50   28   48 1   
    51   29   30 1   
    52   29   49 1   
    53   29   50 1   
    54   30   51 1   
@<TRIPOS>SUBSTRUCTURE
     1 367         1 TEMP              0 ****  ****    0 ROOT
