@<TRIPOS>MOLECULE
367
   51    53     1     0     0
SMALL
bcc


@<TRIPOS>ATOM
      1 C01         0.9230   -0.8180    0.8200 ca        1 367     -0.061000
      2 C02         1.7810   -1.1160   -0.3070 ca        1 367      0.071600
      3 C03         1.8460   -2.4190   -0.7880 ca        1 367     -0.149000
      4 C04         1.0640   -3.4410   -0.2100 ca        1 367     -0.099000
      5 C05         0.2090   -3.1720    0.8270 ca        1 367     -0.142000
      6 C06         0.1210   -1.8580    1.3570 ca        1 367     -0.014000
      7 C10         0.8530    0.4690    1.4200 ca        1 367     -0.076000
      8 C11         0.0000    0.7150    2.4740 ca        1 367     -0.132900
      9 C13        -0.7620   -1.5720    2.4360 ca        1 367     -0.118000
     10 C14        -0.8300   -0.3150    2.9810 ca        1 367     -0.119000
     11 C17        -0.0510    2.0840    3.0840 ce        1 367      0.662800
     12 N18        -0.1990    3.1030    2.2920 n2        1 367     -0.855100
     13 N19         0.1540    2.1060    4.4750 nh        1 367     -0.966800
     14 N20         2.4990   -0.0660   -0.9080 n         1 367     -0.469100
     15 C21         3.6960   -0.1780   -1.5970 c         1 367      0.679700
     16 O22         4.2310   -1.2690   -1.8670 o         1 367     -0.580100
     17 C27         4.3140    1.1090   -2.0430 ca        1 367     -0.172600
     18 C28         4.9320    1.1410   -3.3020 ca        1 367     -0.006000
     19 C29         5.5320    2.3160   -3.7500 ca        1 367     -0.165000
     20 C30         5.5210    3.4540   -2.9470 ca        1 367      0.018000
     21 C31         4.9210    3.4340   -1.6800 ca        1 367     -0.406500
     22 C32         4.3210    2.2470   -1.2380 ca        1 367      0.017000
     23 S36         4.9210    4.7870   -0.7190 sy        1 367      1.642800
     24 O38         3.4970    5.5080   -1.2330 os        1 367     -0.570500
     25 O42         4.6980    4.4810    0.6120 o         1 367     -0.662800
     26 O43         5.9120    5.6790   -1.0770 o         1 367     -0.662800
     27 C44         2.8130    6.4260   -0.4090 c3        1 367      0.193400
     28 C45         1.6970    5.7270    0.3470 c3        1 367     -0.159400
     29 C46         0.8500    6.7410    1.0950 c3        1 367      0.135400
     30 O47        -0.2120    6.1220    1.7950 oh        1 367     -0.604800
     31 H03         2.5150   -2.6800   -1.6250 ha        1 367      0.168000
     32 H04         1.1500   -4.4600   -0.6180 ha        1 367      0.138000
     33 H05        -0.4160   -3.9630    1.2680 ha        1 367      0.136000
     34 H10         1.4920    1.2930    1.0660 ha        1 367      0.140000
     35 H13        -1.3940   -2.3860    2.8230 ha        1 367      0.137000
     36 H14        -1.5300   -0.0990    3.8010 ha        1 367      0.133000
     37 H18        -0.2150    4.0080    2.7160 hn        1 367      0.401400
     38 H191       -0.1330    2.9160    4.9710 hn        1 367      0.405800
     39 H192        0.0360    1.2470    4.9560 hn        1 367      0.405800
     40 H20         2.1300    0.8490   -0.7720 hn        1 367      0.326500
     41 H28         4.9460    0.2270   -3.9200 ha        1 367      0.164000
     42 H29         6.0160    2.3440   -4.7390 ha        1 367      0.153000
     43 H30         5.9990    4.3860   -3.3020 ha        1 367      0.164000
     44 H32         3.8740    2.2270   -0.2260 ha        1 367      0.162000
     45 H441        3.5340    6.9120    0.3040 h1        1 367      0.049700
     46 H442        2.4000    7.2020   -1.1110 h1        1 367      0.049700
     47 H451        2.1300    4.9870    1.0710 hc        1 367      0.070200
     48 H452        1.0590    5.1530   -0.3750 hc        1 367      0.070200
     49 H461        1.4490    7.2580    1.8910 h1        1 367      0.043700
     50 H462        0.4390    7.5080    0.3840 h1        1 367      0.043700
     51 H47        -0.7200    5.6100    1.1520 ho        1 367      0.409000
@<TRIPOS>BOND
     1    1    2 ar  
     2    1    6 ar  
     3    1    7 ar  
     4    2    3 ar  
     5    2   14 1   
     6    3    4 ar  
     7    3   31 1   
     8    4    5 ar  
     9    4   32 1   
    10    5    6 ar  
    11    5   33 1   
    12    6    9 ar  
    13    7    8 ar  
    14    7   34 1   
    15    8   10 ar  
    16    8   11 1   
    17    9   10 ar  
    18    9   35 1   
    19   10   36 1   
    20   11   12 2   
    21   11   13 1   
    22   12   37 1   
    23   13   38 1   
    24   13   39 1   
    25   14   15 1   
    26   14   40 1   
    27   15   16 2   
    28   15   17 1   
    29   17   18 ar  
    30   17   22 ar  
    31   18   19 ar  
    32   18   41 1   
    33   19   20 ar  
    34   19   42 1   
    35   20   21 ar  
    36   20   43 1   
    37   21   22 ar  
    38   21   23 1   
    39   22   44 1   
    40   23   24 1   
    41   23   25 2   
    42   23   26 2   
    43   24   27 1   
    44   27   28 1   
    45   27   45 1   
    46   27   46 1   
    47   28   29 1   
    48   28   47 1   
    49   28   48 1   
    50   29   30 1   
    51   29   49 1   
    52   29   50 1   
    53   30   51 1   
@<TRIPOS>SUBSTRUCTURE
     1 367         1 TEMP              0 ****  ****    0 ROOT
