@<TRIPOS>MOLECULE
367
   53    55     1     0     0
SMALL
bcc


@<TRIPOS>ATOM
      1 C01         0.2070   -0.0300   -0.3820 ca        1 367     -0.018000
      2 C02         1.5300   -0.2120    0.1500 ca        1 367     -0.062400
      3 C03         2.0160    0.6100    1.1610 ca        1 367     -0.044000
      4 C04         1.2270    1.6620    1.6690 ca        1 367     -0.106000
      5 C05        -0.0310    1.8850    1.1660 ca        1 367     -0.046000
      6 C06        -0.5590    1.0500    0.1420 ca        1 367     -0.020000
      7 C10        -0.3870   -0.8500   -1.3820 ca        1 367     -0.103000
      8 C11        -1.6640   -0.5900   -1.8390 ca        1 367     -0.176900
      9 C13        -1.8660    1.3010   -0.3600 ca        1 367     -0.056000
     10 C14        -2.4120    0.5010   -1.3330 ca        1 367     -0.128000
     11 C17        -2.2570   -1.4120   -2.9220 ce        1 367      0.559800
     12 N18        -1.9430   -1.5690   -4.1440 n2        1 367     -0.683100
     13 N19        -3.4820   -2.1630   -2.4530 n4        1 367     -0.825600
     14 N20         2.4060   -1.2860   -0.3330 n4        1 367     -0.550200
     15 C21         3.7740   -0.7540   -0.7810 c         1 367      0.584700
     16 O22         4.5990   -0.7090    0.1200 o         1 367     -0.414100
     17 C27         3.9500   -0.4120   -2.1880 ca        1 367     -0.217600
     18 C28         5.2670   -0.1110   -2.6080 ca        1 367      0.021000
     19 C29         5.5100    0.2210   -3.9360 ca        1 367     -0.139000
     20 C30         4.4600    0.2500   -4.8570 ca        1 367      0.074000
     21 C31         3.1490   -0.0490   -4.4560 ca        1 367     -0.376500
     22 C32         2.9080   -0.3650   -3.1160 ca        1 367      0.024000
     23 S36         1.8700   -0.0510   -5.5460 sy        1 367      1.649800
     24 O38         2.2390   -1.4270   -6.3860 os        1 367     -0.566500
     25 O42         0.7000   -0.3450   -4.8410 o         1 367     -0.679300
     26 O43         1.9150    0.9950   -6.4310 o         1 367     -0.679300
     27 C44         1.6150   -1.7180   -7.6280 c3        1 367      0.166400
     28 C45         0.2720   -2.3800   -7.3900 c3        1 367     -0.123400
     29 C46        -0.4610   -2.5950   -8.7040 c3        1 367      0.135400
     30 O47        -1.7670   -3.0320   -8.3600 oh        1 367     -0.611800
     31 H03         3.0280    0.4640    1.5880 ha        1 367      0.184000
     32 H04         1.6420    2.3000    2.4710 ha        1 367      0.193000
     33 H05        -0.6530    2.7150    1.5510 ha        1 367      0.184000
     34 H10         0.1550   -1.7040   -1.8160 ha        1 367      0.130000
     35 H13        -2.4330    2.1580    0.0450 ha        1 367      0.182000
     36 H14        -3.4110    0.7280   -1.7390 ha        1 367      0.160000
     37 H18        -1.1570   -1.0920   -4.5480 hn        1 367      0.536400
     38 H191       -3.2040   -2.8370   -1.7340 hn        1 367      0.472800
     39 H192       -3.9390   -2.6640   -3.2290 hn        1 367      0.472800
     40 H20         2.5630   -1.9400    0.4510 hn        1 367      0.462800
     41 H28         6.0970   -0.1410   -1.8760 ha        1 367      0.186000
     42 H29         6.5370    0.4620   -4.2630 ha        1 367      0.193000
     43 H30         4.6630    0.5140   -5.9140 ha        1 367      0.189000
     44 H32         1.8580   -0.5540   -2.8200 ha        1 367      0.143000
     45 H441        1.5170   -0.7730   -8.2300 h1        1 367      0.083200
     46 H442        2.3320   -2.4180   -8.1410 h1        1 367      0.083200
     47 H451       -0.3580   -1.7420   -6.7140 hc        1 367      0.057700
     48 H452        0.4170   -3.3650   -6.8760 hc        1 367      0.057700
     49 H461        0.0620   -3.3710   -9.3250 h1        1 367      0.040200
     50 H462       -0.5240   -1.6380   -9.2880 h1        1 367      0.040200
     51 H47        -2.2040   -3.2770   -9.1850 ho        1 367      0.422000
     52 H193       -4.1420   -1.4890   -2.0500 hn        1 367      0.472800
     53 H202        1.9680   -1.7950   -1.1030 hn        1 367      0.462800
@<TRIPOS>BOND
     1    1    2 ar  
     2    1    6 ar  
     3    1    7 ar  
     4    2    3 ar  
     5    2   14 1   
     6    3    4 ar  
     7    3   31 1   
     8    4    5 ar  
     9    4   32 1   
    10    5    6 ar  
    11    5   33 1   
    12    6    9 ar  
    13    7    8 ar  
    14    7   34 1   
    15    8   10 ar  
    16    8   11 1   
    17    9   10 ar  
    18    9   35 1   
    19   10   36 1   
    20   11   12 2   
    21   11   13 1   
    22   12   37 1   
    23   13   38 1   
    24   13   39 1   
    25   13   52 1   
    26   14   15 1   
    27   14   40 1   
    28   14   53 1   
    29   15   16 2   
    30   15   17 1   
    31   17   18 ar  
    32   17   22 ar  
    33   18   19 ar  
    34   18   41 1   
    35   19   20 ar  
    36   19   42 1   
    37   20   21 ar  
    38   20   43 1   
    39   21   22 ar  
    40   21   23 1   
    41   22   44 1   
    42   23   24 1   
    43   23   25 2   
    44   23   26 2   
    45   24   27 1   
    46   27   28 1   
    47   27   45 1   
    48   27   46 1   
    49   28   29 1   
    50   28   47 1   
    51   28   48 1   
    52   29   30 1   
    53   29   49 1   
    54   29   50 1   
    55   30   51 1   
@<TRIPOS>SUBSTRUCTURE
     1 367         1 TEMP              0 ****  ****    0 ROOT
