@<TRIPOS>MOLECULE
369
   45    48     1     0     0
SMALL
bcc


@<TRIPOS>ATOM
      1 C10        -0.0950   -0.0640    0.2700 ca        1 369      0.122100
      2 C12        -1.4810   -0.8740   -2.9510 ca        1 369     -0.127000
      3 C13        -1.7260   -1.9600   -3.7810 ca        1 369     -0.158000
      4 C15        -1.1280   -3.4820   -1.9650 ca        1 369     -0.158000
      5 C19        -2.7520   -1.1180    2.4500 ca        1 369     -0.154000
      6 C21        -4.9360   -0.1810    1.9830 ca        1 369     -0.151000
      7 C22        -4.3180    0.8190    1.2150 ca        1 369      0.120100
      8 C23        -2.9260    0.8570    1.0610 ca        1 369     -0.181000
      9 C1         -0.4090   -0.0270    4.0440 c3        1 369     -0.059800
     10 C2          0.1690   -0.0420    2.6780 ca        1 369     -0.041300
     11 C3          1.5380   -0.0100    2.5250 ca        1 369     -0.140000
     12 C4          2.1430   -0.0060    1.2420 ca        1 369      0.016000
     13 C5          3.5540    0.0300    1.0910 ca        1 369     -0.227000
     14 C6          4.1060    0.0520   -0.1740 ca        1 369      0.139100
     15 O1          5.4600    0.0870   -0.4080 oh        1 369     -0.495100
     16 C7          3.2850    0.0400   -1.3410 ca        1 369     -0.143000
     17 C8          1.9230    0.0010   -1.2000 ca        1 369     -0.076000
     18 C9          1.3190   -0.0280    0.0890 ca        1 369     -0.081000
     19 O2         -0.9120    0.0560   -0.8580 os        1 369     -0.258200
     20 C11        -1.0650   -1.0980   -1.6270 ca        1 369      0.079100
     21 C14        -1.5460   -3.2630   -3.2840 ca        1 369      0.100100
     22 O3         -1.7990   -4.2920   -4.1640 oh        1 369     -0.497100
     23 C16        -0.8890   -2.3920   -1.1300 ca        1 369     -0.127000
     24 C17        -0.6810   -0.0820    1.5300 cp        1 369     -0.049000
     25 C18        -2.1380   -0.1160    1.6870 cp        1 369     -0.001000
     26 C20        -4.1390   -1.1460    2.5910 ca        1 369     -0.104000
     27 H12        -1.6170    0.1550   -3.3130 ha        1 369      0.151000
     28 H13        -2.0570   -1.8170   -4.8190 ha        1 369      0.145500
     29 H15        -0.9920   -4.5050   -1.5870 ha        1 369      0.145500
     30 H19        -2.1360   -1.8890    2.9350 ha        1 369      0.134000
     31 H21        -6.0300   -0.1900    2.0870 ha        1 369      0.150000
     32 H23        -2.4510    1.6280    0.4370 ha        1 369      0.148000
     33 H1         -0.5670   -1.0760    4.4040 hc        1 369      0.051033
     34 H1A         0.2780    0.4880    4.7610 hc        1 369      0.051033
     35 H1B        -1.3960    0.4990    4.0590 hc        1 369      0.051033
     36 H3          2.1920    0.0200    3.4110 ha        1 369      0.137000
     37 H5          4.1880    0.0440    1.9890 ha        1 369      0.137000
     38 HO1         5.9120    0.0990    0.4490 ho        1 369      0.421000
     39 H7          3.7700    0.0620   -2.3270 ha        1 369      0.155000
     40 H8          1.2660   -0.0070   -2.0840 ha        1 369      0.151000
     41 HO3        -1.6550   -5.1260   -3.6950 ho        1 369      0.418000
     42 H16        -0.5640   -2.5480   -0.0900 ha        1 369      0.151000
     43 H20        -4.6100   -1.9400    3.1890 ha        1 369      0.134000
     44 HO4        -4.6040    2.3450    0.1020 ho        1 369      0.421000
     45 O4         -5.1500    1.7490    0.6340 oh        1 369     -0.499100
@<TRIPOS>BOND
     1    1   18 ar  
     2    1   19 1   
     3    1   24 ar  
     4    2    3 ar  
     5    2   20 ar  
     6    2   27 1   
     7    3   21 ar  
     8    3   28 1   
     9    4   21 ar  
    10    4   23 ar  
    11    4   29 1   
    12    5   25 ar  
    13    5   26 ar  
    14    5   30 1   
    15    6    7 ar  
    16    6   26 ar  
    17    6   31 1   
    18    7    8 ar  
    19    7   45 1   
    20    8   25 ar  
    21    8   32 1   
    22    9   10 1   
    23    9   33 1   
    24    9   34 1   
    25    9   35 1   
    26   10   11 ar  
    27   10   24 ar  
    28   11   12 ar  
    29   11   36 1   
    30   12   13 ar  
    31   12   18 ar  
    32   13   14 ar  
    33   13   37 1   
    34   14   15 1   
    35   14   16 ar  
    36   15   38 1   
    37   16   17 ar  
    38   16   39 1   
    39   17   18 ar  
    40   17   40 1   
    41   19   20 1   
    42   20   23 ar  
    43   21   22 1   
    44   22   41 1   
    45   23   42 1   
    46   24   25 1   
    47   26   43 1   
    48   44   45 1   
@<TRIPOS>SUBSTRUCTURE
     1 369         1 TEMP              0 ****  ****    0 ROOT
