@<TRIPOS>MOLECULE
369
   45    37     1     0     0
SMALL
bcc


@<TRIPOS>ATOM
      1 C10         0.5390    0.2970   -0.1960 c1        1 369      0.081000
      2 C12        -1.4770    0.1800   -3.1230 c1        1 369     -0.135500
      3 C13        -1.9700   -0.7950   -3.9750 c1        1 369     -0.135500
      4 C15        -0.4940   -2.4090   -2.9850 c1        1 369     -0.168500
      5 C19        -2.3440   -0.5350    1.5320 c1        1 369     -0.135500
      6 C21        -4.0770    1.0200    2.1140 c1        1 369     -0.168500
      7 C22        -3.1800    2.0680    1.9860 c1        1 369      0.062500
      8 C23        -1.8650    1.8150    1.6300 c1        1 369     -0.130000
      9 C1          0.2640    0.0120    3.6820 c3        1 369     -0.184000
     10 C2          0.5690    0.1680    2.2080 c2        1 369     -0.034000
     11 C3          1.9560    0.1060    2.1890 c1        1 369     -0.138000
     12 C4          2.6450    0.1400    0.9620 c1        1 369      0.015000
     13 C5          4.0530    0.1180    0.9440 c2        1 369     -0.227000
     14 C6          4.7330    0.1920   -0.2650 c1        1 369      0.095000
     15 O1          6.1250   -0.0110   -0.2530 o         1 369     -0.249000
     16 C7          4.0230    0.2870   -1.4590 c2        1 369     -0.146000
     17 C8          2.6350    0.3090   -1.4420 c1        1 369     -0.074000
     18 C9          1.9440    0.2340   -0.2170 c1        1 369     -0.081000
     19 O2          0.0640    0.8660   -1.3900 os        1 369     -0.164000
     20 C11        -0.4920   -0.1400   -2.2010 c1        1 369      0.039000
     21 C14        -1.4790   -2.0890   -3.9070 c1        1 369      0.062500
     22 O3         -1.9790   -3.0790   -4.7740 oh        1 369     -0.252000
     23 C16        -0.0010   -1.4350   -2.1320 c1        1 369     -0.149000
     24 C17        -0.1400    0.2630    1.0150 c1        1 369     -0.054000
     25 C18        -1.4460    0.5130    1.4030 c1        1 369     -0.005000
     26 C20        -3.6590   -0.2820    1.8870 c1        1 369     -0.135500
     27 O4         -3.6170    3.3940    2.1670 oh        1 369     -0.252000
     28 H12        -1.8220    1.0910   -3.1710 ha        1 369      0.140250
     29 H13        -2.6630   -0.5700   -4.6250 ha        1 369      0.140250
     30 H15        -0.1490   -3.3210   -2.9360 ha        1 369      0.142500
     31 H19        -2.0490   -1.4520    1.3720 ha        1 369      0.140250
     32 H21        -5.0030    1.1980    2.3650 ha        1 369      0.142500
     33 H23        -1.2320    2.5540    1.5400 ha        1 369      0.160000
     34 H1         -0.6590   -0.2970    3.7930 hc        1 369      0.090000
     35 H1A         0.3770    0.8750    4.1320 hc        1 369      0.090000
     36 H1B         0.8780   -0.6440    4.0740 hc        1 369      0.090000
     37 H3          2.4540    0.0600    3.0270 ha        1 369      0.137000
     38 H5          4.5500    0.0220    1.7780 ha        1 369      0.137000
     39 HO1         6.5340    0.7530   -0.0540 ho        1 369      0.220000
     40 H7          4.5020    0.3390   -2.3080 ha        1 369      0.155000
     41 H8          2.1380    0.3760   -2.2790 ha        1 369      0.154000
     42 HO3        -1.6030   -2.9890   -5.5750 ho        1 369      0.216500
     43 H16         0.6930   -1.6600   -1.4830 ha        1 369      0.151000
     44 H20        -4.2910   -1.0200    1.9780 ha        1 369      0.140250
     45 HO4        -3.9840    3.4770    2.9720 ho        1 369      0.216500
@<TRIPOS>BOND
     1    1   19 1   
     2    1   24 1   
     3    2    3 1   
     4    2   28 1   
     5    3   29 1   
     6    4   21 1   
     7    4   30 1   
     8    5   26 1   
     9    5   31 1   
    10    6    7 1   
    11    6   32 1   
    12    7   27 1   
    13    8   25 1   
    14    8   33 1   
    15    9   10 1   
    16    9   34 1   
    17    9   35 1   
    18    9   36 1   
    19   10   11 1   
    20   10   24 1   
    21   11   37 1   
    22   12   13 1   
    23   12   18 1   
    24   13   14 1   
    25   13   38 1   
    26   14   16 1   
    27   15   39 1   
    28   16   17 1   
    29   16   40 1   
    30   17   41 1   
    31   19   20 1   
    32   20   23 1   
    33   21   22 1   
    34   22   42 1   
    35   23   43 1   
    36   26   44 1   
    37   27   45 1   
@<TRIPOS>SUBSTRUCTURE
     1 369         1 TEMP              0 ****  ****    0 ROOT
