@<TRIPOS>MOLECULE
369
   45    48     1     0     0
SMALL
bcc


@<TRIPOS>ATOM
      1 C10        -0.4970   -0.4220   -0.3070 ca        1 369      0.124100
      2 C12         0.7390    2.7310   -1.5830 ca        1 369     -0.134000
      3 C13         0.9700    4.0380   -1.1790 ca        1 369     -0.156500
      4 C15         0.3420    3.4450    1.1060 ca        1 369     -0.156500
      5 C19         2.4740   -0.5810    1.1090 ca        1 369     -0.149000
      6 C21         4.5240   -1.4520    0.1650 ca        1 369     -0.209000
      7 C22         3.7660   -2.2800   -0.6740 ca        1 369      0.121100
      8 C23         2.3620   -2.2690   -0.6290 ca        1 369     -0.137000
      9 C1          0.3670   -3.4620    1.7580 c3        1 369     -0.059800
     10 C2         -0.4260   -2.4150    1.0710 ca        1 369     -0.042300
     11 C3         -1.8000   -2.4190    1.1410 ca        1 369     -0.135000
     12 C4         -2.5790   -1.4300    0.4820 ca        1 369      0.010000
     13 C5         -3.9950   -1.4490    0.5480 ca        1 369     -0.166000
     14 C6         -4.7210   -0.4790   -0.1210 ca        1 369      0.129100
     15 O1         -6.0930   -0.5420   -0.0240 oh        1 369     -0.496100
     16 C7         -4.0730    0.5370   -0.8770 ca        1 369     -0.198000
     17 C8         -2.7030    0.5620   -0.9400 ca        1 369     -0.065000
     18 C9         -1.9250   -0.4140   -0.2600 ca        1 369     -0.084000
     19 O2          0.1430    0.4950   -1.1450 os        1 369     -0.249200
     20 C11         0.3100    1.7820   -0.6370 ca        1 369      0.085100
     21 C14         0.7680    4.3920    0.1680 ca        1 369      0.095100
     22 O3          1.0110    5.7080    0.4950 oh        1 369     -0.498100
     23 C16         0.1150    2.1300    0.7020 ca        1 369     -0.134000
     24 C17         0.2530   -1.3940    0.3350 cp        1 369     -0.052000
     25 C18         1.7190   -1.4130    0.2690 cp        1 369      0.001000
     26 C20         3.8650   -0.6050    1.0520 ca        1 369     -0.092000
     27 H12         0.8940    2.4250   -2.6270 ha        1 369      0.151500
     28 H13         1.3090    4.8010   -1.8940 ha        1 369      0.145000
     29 H15         0.1880    3.7320    2.1560 ha        1 369      0.145000
     30 H19         1.9610    0.0990    1.8050 ha        1 369      0.137000
     31 H21         5.6220   -1.4700    0.1180 ha        1 369      0.133000
     32 H23         1.7900   -2.9230   -1.3020 ha        1 369      0.157000
     33 H1          1.0500   -3.9670    1.0290 hc        1 369      0.051700
     34 H1A         0.9960   -3.0010    2.5610 hc        1 369      0.051700
     35 H1B        -0.2940   -4.2330    2.2230 hc        1 369      0.051700
     36 H3         -2.3260   -3.2010    1.7120 ha        1 369      0.140000
     37 H5         -4.5080   -2.2310    1.1240 ha        1 369      0.153000
     38 HO1        -6.4630    0.1820   -0.5480 ho        1 369      0.420000
     39 H7         -4.6780    1.2890   -1.4030 ha        1 369      0.137000
     40 H8         -2.1780    1.3370   -1.5220 ha        1 369      0.150000
     41 HO3         0.8410    5.8140    1.4420 ho        1 369      0.417000
     42 H16        -0.2170    1.3760    1.4310 ha        1 369      0.151500
     43 H20         4.4500    0.0530    1.7120 ha        1 369      0.134000
     44 HO4         5.2990   -3.0330   -1.5300 ho        1 369      0.418000
     45 O4          4.3390   -3.1480   -1.5760 oh        1 369     -0.498100
@<TRIPOS>BOND
     1    1   18 ar  
     2    1   19 1   
     3    1   24 ar  
     4    2    3 ar  
     5    2   20 ar  
     6    2   27 1   
     7    3   21 ar  
     8    3   28 1   
     9    4   21 ar  
    10    4   23 ar  
    11    4   29 1   
    12    5   25 ar  
    13    5   26 ar  
    14    5   30 1   
    15    6    7 ar  
    16    6   26 ar  
    17    6   31 1   
    18    7    8 ar  
    19    7   45 1   
    20    8   25 ar  
    21    8   32 1   
    22    9   10 1   
    23    9   33 1   
    24    9   34 1   
    25    9   35 1   
    26   10   11 ar  
    27   10   24 ar  
    28   11   12 ar  
    29   11   36 1   
    30   12   13 ar  
    31   12   18 ar  
    32   13   14 ar  
    33   13   37 1   
    34   14   15 1   
    35   14   16 ar  
    36   15   38 1   
    37   16   17 ar  
    38   16   39 1   
    39   17   18 ar  
    40   17   40 1   
    41   19   20 1   
    42   20   23 ar  
    43   21   22 1   
    44   22   41 1   
    45   23   42 1   
    46   24   25 1   
    47   26   43 1   
    48   44   45 1   
@<TRIPOS>SUBSTRUCTURE
     1 369         1 TEMP              0 ****  ****    0 ROOT
