@<TRIPOS>MOLECULE
369
   45    48     1     0     0
SMALL
bcc


@<TRIPOS>ATOM
      1 C10        -0.0940   -0.0660    0.2750 ca        1 369      0.122100
      2 C12        -1.4540   -0.8600   -2.9600 ca        1 369     -0.127000
      3 C13        -1.6970   -1.9420   -3.7950 ca        1 369     -0.158000
      4 C15        -1.1320   -3.4730   -1.9760 ca        1 369     -0.158000
      5 C19        -2.7670   -1.1140    2.4380 ca        1 369     -0.154000
      6 C21        -4.9450   -0.1660    1.9620 ca        1 369     -0.151000
      7 C22        -4.3180    0.8330    1.1990 ca        1 369      0.120100
      8 C23        -2.9250    0.8650    1.0530 ca        1 369     -0.181000
      9 C1         -0.4280   -0.0370    4.0480 c3        1 369     -0.059800
     10 C2          0.1570   -0.0510    2.6840 ca        1 369     -0.041300
     11 C3          1.5270   -0.0260    2.5390 ca        1 369     -0.140000
     12 C4          2.1390   -0.0210    1.2590 ca        1 369      0.016000
     13 C5          3.5510    0.0090    1.1160 ca        1 369     -0.227000
     14 C6          4.1100    0.0310   -0.1460 ca        1 369      0.139100
     15 O1          5.4660    0.0610   -0.3720 oh        1 369     -0.495100
     16 C7          3.2960    0.0250   -1.3170 ca        1 369     -0.143000
     17 C8          1.9330   -0.0070   -1.1830 ca        1 369     -0.076000
     18 C9          1.3220   -0.0360    0.1020 ca        1 369     -0.081000
     19 O2         -0.9040    0.0600   -0.8570 os        1 369     -0.258200
     20 C11        -1.0560   -1.0910   -1.6310 ca        1 369      0.078100
     21 C14        -1.5320   -3.2480   -3.2990 ca        1 369      0.100100
     22 O3         -1.7830   -4.2720   -4.1850 oh        1 369     -0.497100
     23 C16        -0.8950   -2.3870   -1.1350 ca        1 369     -0.127000
     24 C17        -0.6860   -0.0850    1.5320 cp        1 369     -0.049000
     25 C18        -2.1440   -0.1130    1.6810 cp        1 369     -0.001000
     26 C20        -4.1550   -1.1350    2.5720 ca        1 369     -0.104000
     27 H12        -1.5780    0.1710   -3.3200 ha        1 369      0.151000
     28 H13        -2.0150   -1.7940   -4.8370 ha        1 369      0.145500
     29 H15        -1.0080   -4.4980   -1.5990 ha        1 369      0.145500
     30 H19        -2.1570   -1.8890    2.9250 ha        1 369      0.134000
     31 H21        -6.0390   -0.1700    2.0600 ha        1 369      0.150000
     32 H23        -2.4430    1.6350    0.4330 ha        1 369      0.148000
     33 H1         -0.5920   -1.0860    4.4040 hc        1 369      0.051033
     34 H1A         0.2570    0.4730    4.7690 hc        1 369      0.051033
     35 H1B        -1.4130    0.4930    4.0580 hc        1 369      0.051033
     36 H3          2.1760   -0.0010    3.4280 ha        1 369      0.137000
     37 H5          4.1800    0.0170    2.0170 ha        1 369      0.137000
     38 HO1         5.9130    0.0680    0.4860 ho        1 369      0.421000
     39 H7          3.7850    0.0480   -2.3010 ha        1 369      0.155000
     40 H8          1.2800   -0.0100   -2.0720 ha        1 369      0.151000
     41 HO3        -1.6500   -5.1090   -3.7160 ho        1 369      0.418000
     42 H16        -0.5840   -2.5470   -0.0920 ha        1 369      0.151000
     43 H20        -4.6330   -1.9290    3.1660 ha        1 369      0.134000
     44 HO4        -4.5900    2.3630    0.0870 ho        1 369      0.421000
     45 O4         -5.1430    1.7680    0.6150 oh        1 369     -0.499100
@<TRIPOS>BOND
     1    1   18 ar  
     2    1   19 1   
     3    1   24 ar  
     4    2    3 ar  
     5    2   20 ar  
     6    2   27 1   
     7    3   21 ar  
     8    3   28 1   
     9    4   21 ar  
    10    4   23 ar  
    11    4   29 1   
    12    5   25 ar  
    13    5   26 ar  
    14    5   30 1   
    15    6    7 ar  
    16    6   26 ar  
    17    6   31 1   
    18    7    8 ar  
    19    7   45 1   
    20    8   25 ar  
    21    8   32 1   
    22    9   10 1   
    23    9   33 1   
    24    9   34 1   
    25    9   35 1   
    26   10   11 ar  
    27   10   24 ar  
    28   11   12 ar  
    29   11   36 1   
    30   12   13 ar  
    31   12   18 ar  
    32   13   14 ar  
    33   13   37 1   
    34   14   15 1   
    35   14   16 ar  
    36   15   38 1   
    37   16   17 ar  
    38   16   39 1   
    39   17   18 ar  
    40   17   40 1   
    41   19   20 1   
    42   20   23 ar  
    43   21   22 1   
    44   22   41 1   
    45   23   42 1   
    46   24   25 1   
    47   26   43 1   
    48   44   45 1   
@<TRIPOS>SUBSTRUCTURE
     1 369         1 TEMP              0 ****  ****    0 ROOT
