@<TRIPOS>MOLECULE
36A
   60    63     1     0     0
SMALL
bcc


@<TRIPOS>ATOM
      1 C           4.5360   -4.8730    3.4850 c         1 36A      0.907600
      2 N           2.1480   -4.3400    3.0140 n4        1 36A     -0.836600
      3 O           4.0640   -5.5440    4.4540 o         1 36A     -0.810300
      4 N1          8.7130   -5.1590    5.1410 nb        1 36A     -0.683000
      5 C2          9.5170   -4.0590    5.1150 ca        1 36A      0.670900
      6 N3          9.2610   -2.8040    5.5660 nb        1 36A     -0.662000
      7 C4          8.0520   -2.6680    6.1650 ca        1 36A      0.450800
      8 C5          7.1040   -3.7930    6.3070 ca        1 36A     -0.139200
      9 C6          7.4870   -5.0110    5.7090 ca        1 36A      0.588200
     10 N6          6.5130   -6.1090    5.6200 n4        1 36A     -0.756700
     11 N7          5.9620   -3.3700    7.0050 nc        1 36A     -0.565100
     12 C8          6.1760   -2.0730    7.2620 cd        1 36A      0.486700
     13 N9          7.4320   -1.5770    6.8070 na        1 36A     -0.268000
     14 CA          3.5640   -3.9730    2.6680 c3        1 36A     -0.002500
     15 CB          3.8610   -2.4970    2.9500 c3        1 36A     -0.076400
     16 CD          7.1380   -0.6460    3.3580 c3        1 36A     -0.037300
     17 SD          5.5380   -0.4160    2.6310 ss        1 36A     -0.253200
     18 CG          5.0730   -2.0540    2.1640 c3        1 36A     -0.036300
     19 C1'         7.6350   -0.1540    6.5840 c3        1 36A      0.197800
     20 C2'         9.0680    0.2830    6.1570 c3        1 36A      0.095100
     21 O2'         9.4510    1.4170    6.8930 oh        1 36A     -0.571800
     22 C27         7.0370   -7.4020    6.1520 c3        1 36A      0.177100
     23 C28         5.9550   -8.3660    6.5240 ca        1 36A     -0.143300
     24 C29         4.7660   -8.4660    5.7950 ca        1 36A     -0.119000
     25 C3'         8.9390    0.5930    4.6440 c3        1 36A      0.085100
     26 O3'         9.3220    1.9280    4.3840 oh        1 36A     -0.584800
     27 C30         3.8160   -9.4240    6.1640 ca        1 36A      0.022400
     28 C31         4.0440  -10.2810    7.2450 ca        1 36A     -0.095000
     29 C32         5.2330  -10.1710    7.9660 ca        1 36A     -0.110000
     30 C33         6.1850   -9.2160    7.6140 ca        1 36A     -0.103000
     31 CL34        2.3700   -9.5480    5.2830 cl        1 36A     -0.075400
     32 C4'         7.4300    0.4910    4.3160 c3        1 36A      0.144100
     33 O4'         6.7430    0.3080    5.5660 os        1 36A     -0.410600
     34 OXT         5.7490   -4.8990    3.1620 o         1 36A     -0.810300
     35 HN          2.1650   -4.7970    3.9480 hn        1 36A      0.458467
     36 HNA         1.7840   -5.0070    2.3340 hn        1 36A      0.458467
     37 H2         10.5140   -4.2130    4.6410 h5        1 36A      0.087100
     38 HN6         6.2520   -6.2120    4.6080 hn        1 36A      0.503300
     39 H8          5.4770   -1.4130    7.7990 h5        1 36A      0.099800
     40 HA          3.7160   -4.1890    1.5700 hx        1 36A      0.112700
     41 HB          4.0440   -2.3570    4.0480 hc        1 36A      0.066700
     42 HBA         2.9870   -1.8500    2.6660 hc        1 36A      0.066700
     43 HD          7.1950   -1.6300    3.8820 h1        1 36A      0.075700
     44 HDA         7.9040   -0.6420    2.5420 h1        1 36A      0.075700
     45 HG          5.9130   -2.7820    2.3100 h1        1 36A      0.098700
     46 HGA         4.8340   -2.0300    1.0710 h1        1 36A      0.098700
     47 H1'         7.3120    0.3730    7.5330 h2        1 36A      0.124700
     48 H2'         9.8600   -0.4790    6.3830 h1        1 36A      0.127700
     49 HO2'        8.9250    2.1720    6.5870 ho        1 36A      0.428000
     50 H27         7.6980   -7.8560    5.3550 hx        1 36A      0.107700
     51 H27A        7.6780   -7.1780    7.0540 hx        1 36A      0.107700
     52 H29         4.5540   -7.7990    4.9410 ha        1 36A      0.167000
     53 H3'         9.5510   -0.1230    4.0370 h1        1 36A      0.077700
     54 HO3'       10.2680    1.9950    4.5750 ho        1 36A      0.429000
     55 H31         3.2930  -11.0370    7.5270 ha        1 36A      0.164000
     56 H32         5.4200  -10.8430    8.8190 ha        1 36A      0.157000
     57 H33         7.1190   -9.1380    8.1910 ha        1 36A      0.146000
     58 H4'         7.0400    1.4700    3.9130 h1        1 36A      0.124700
     59 HN3         1.5500   -3.5140    3.0430 hn        1 36A      0.458467
     60 H62         5.6380   -5.8390    6.1060 hn        1 36A      0.503300
@<TRIPOS>BOND
     1    1    3 1   
     2    1   14 1   
     3    1   34 1   
     4    2   14 1   
     5    2   35 1   
     6    2   36 1   
     7    2   59 1   
     8    4    5 ar  
     9    4    9 ar  
    10    5    6 ar  
    11    5   37 1   
    12    6    7 ar  
    13    7    8 ar  
    14    7   13 1   
    15    8    9 ar  
    16    8   11 1   
    17    9   10 1   
    18   10   22 1   
    19   10   38 1   
    20   10   60 1   
    21   11   12 2   
    22   12   13 1   
    23   12   39 1   
    24   13   19 1   
    25   14   15 1   
    26   14   40 1   
    27   15   18 1   
    28   15   41 1   
    29   15   42 1   
    30   16   17 1   
    31   16   32 1   
    32   16   43 1   
    33   16   44 1   
    34   17   18 1   
    35   18   45 1   
    36   18   46 1   
    37   19   20 1   
    38   19   33 1   
    39   19   47 1   
    40   20   21 1   
    41   20   25 1   
    42   20   48 1   
    43   21   49 1   
    44   22   23 1   
    45   22   50 1   
    46   22   51 1   
    47   23   24 ar  
    48   23   30 ar  
    49   24   27 ar  
    50   24   52 1   
    51   25   26 1   
    52   25   32 1   
    53   25   53 1   
    54   26   54 1   
    55   27   28 ar  
    56   27   31 1   
    57   28   29 ar  
    58   28   55 1   
    59   29   30 ar  
    60   29   56 1   
    61   30   57 1   
    62   32   33 1   
    63   32   58 1   
@<TRIPOS>SUBSTRUCTURE
     1 36A         1 TEMP              0 ****  ****    0 ROOT
