@<TRIPOS>MOLECULE
36A
   58    61     1     0     0
SMALL
bcc


@<TRIPOS>ATOM
      1 C          -7.2570   -3.6860    0.3630 c         1 36A      0.890600
      2 N          -7.3200   -1.2920    1.2260 n3        1 36A     -0.895800
      3 O          -7.8710   -4.0000    1.4220 o         1 36A     -0.837800
      4 N1          3.6030    2.4470    0.5670 nb        1 36A     -0.797000
      5 C2          2.7480    3.5040    0.5020 ca        1 36A      0.674900
      6 N3          1.4010    3.5330    0.3870 nb        1 36A     -0.751000
      7 C4          0.8540    2.2780    0.3330 ca        1 36A      0.435800
      8 C5          1.6360    1.0490    0.3900 ca        1 36A     -0.213200
      9 C6          3.0580    1.1860    0.5230 ca        1 36A      0.749200
     10 N6          3.8370    0.0540    0.6460 nh        1 36A     -0.860900
     11 N7          0.7850   -0.0630    0.3030 nc        1 36A     -0.558100
     12 C8         -0.4530    0.4430    0.2010 cd        1 36A      0.437700
     13 N9         -0.4770    1.8610    0.2060 na        1 36A     -0.292000
     14 CA         -6.9190   -2.1720    0.1360 c3        1 36A      0.018500
     15 CB         -5.4310   -2.0670   -0.2080 c3        1 36A     -0.061400
     16 CD         -3.1280    0.8650   -1.9540 c3        1 36A     -0.046300
     17 SD         -3.3740   -0.7190   -1.2220 ss        1 36A     -0.323200
     18 CG         -5.0820   -0.6920   -0.7130 c3        1 36A      0.019700
     19 C1'        -1.6200    2.7470    0.2240 c3        1 36A      0.219800
     20 C2'        -1.6610    3.7460   -0.9820 c3        1 36A      0.077100
     21 O2'        -1.8030    5.0620   -0.4930 oh        1 36A     -0.590800
     22 C27         5.2760    0.1180    0.6310 c3        1 36A      0.263100
     23 C28         5.9270   -1.2330    0.7100 ca        1 36A     -0.096300
     24 C29         6.9650   -1.5420   -0.1750 ca        1 36A     -0.115000
     25 C3'        -2.9390    3.3740   -1.7680 c3        1 36A      0.127100
     26 O3'        -3.9150    4.3870   -1.7620 oh        1 36A     -0.574800
     27 C30         7.6050   -2.7810   -0.0800 ca        1 36A      0.015400
     28 C31         7.2130   -3.7170    0.8820 ca        1 36A     -0.121000
     29 C32         6.1750   -3.4010    1.7560 ca        1 36A     -0.120000
     30 C33         5.5350   -2.1650    1.6770 ca        1 36A     -0.115000
     31 CL34        8.8730   -3.1540   -1.1520 cl        1 36A     -0.100400
     32 C4'        -3.4500    2.0750   -1.0990 c3        1 36A      0.094100
     33 O4'        -2.8370    2.0050    0.1990 os        1 36A     -0.383600
     34 OXT        -6.9150   -4.4970   -0.5400 o         1 36A     -0.837800
     35 HN         -8.2440   -1.5750    1.5100 hn        1 36A      0.333800
     36 HNA        -6.7200   -1.4690    2.0140 hn        1 36A      0.333800
     37 H2          3.2420    4.4980    0.5480 h5        1 36A      0.043100
     38 HN6         3.4020   -0.8190    0.4450 hn        1 36A      0.458800
     39 H8         -1.4010   -0.1330    0.1040 h5        1 36A      0.126800
     40 HA         -7.5130   -1.8500   -0.7690 h1        1 36A      0.040700
     41 HB         -4.8100   -2.3150    0.6910 hc        1 36A      0.064700
     42 HBA        -5.2210   -2.8430   -0.9940 hc        1 36A      0.064700
     43 HD         -2.0450    0.8720   -2.2360 h1        1 36A      0.072700
     44 HDA        -3.7350    0.9460   -2.8910 h1        1 36A      0.072700
     45 HG         -5.7250   -0.4170   -1.5830 h1        1 36A      0.060700
     46 HGA        -5.2220    0.0760    0.0850 h1        1 36A      0.060700
     47 H1'        -1.6250    3.3060    1.2080 h2        1 36A      0.100700
     48 H2'        -0.7530    3.6640   -1.6340 h1        1 36A      0.074700
     49 HO2'       -0.9450    5.3130   -0.1240 ho        1 36A      0.427000
     50 H27         5.6300    0.6550   -0.2990 h1        1 36A      0.061200
     51 H27A        5.6150    0.7310    1.5190 h1        1 36A      0.061200
     52 H29         7.2750   -0.8150   -0.9410 ha        1 36A      0.149000
     53 H3'        -2.7080    3.2110   -2.8560 h1        1 36A      0.092700
     54 HO3'       -4.0050    4.7060   -0.8540 ho        1 36A      0.421000
     55 H31         7.7160   -4.6940    0.9470 ha        1 36A      0.147000
     56 H32         5.8580   -4.1340    2.5140 ha        1 36A      0.141000
     57 H33         4.7220   -1.9230    2.3790 ha        1 36A      0.150000
     58 H4'        -4.5530    2.1290   -0.8820 h1        1 36A      0.107700
@<TRIPOS>BOND
     1    1    3 1   
     2    1   14 1   
     3    1   34 1   
     4    2   14 1   
     5    2   35 1   
     6    2   36 1   
     7    4    5 ar  
     8    4    9 ar  
     9    5    6 ar  
    10    5   37 1   
    11    6    7 ar  
    12    7    8 ar  
    13    7   13 1   
    14    8    9 ar  
    15    8   11 1   
    16    9   10 1   
    17   10   22 1   
    18   10   38 1   
    19   11   12 2   
    20   12   13 1   
    21   12   39 1   
    22   13   19 1   
    23   14   15 1   
    24   14   40 1   
    25   15   18 1   
    26   15   41 1   
    27   15   42 1   
    28   16   17 1   
    29   16   32 1   
    30   16   43 1   
    31   16   44 1   
    32   17   18 1   
    33   18   45 1   
    34   18   46 1   
    35   19   20 1   
    36   19   33 1   
    37   19   47 1   
    38   20   21 1   
    39   20   25 1   
    40   20   48 1   
    41   21   49 1   
    42   22   23 1   
    43   22   50 1   
    44   22   51 1   
    45   23   24 ar  
    46   23   30 ar  
    47   24   27 ar  
    48   24   52 1   
    49   25   26 1   
    50   25   32 1   
    51   25   53 1   
    52   26   54 1   
    53   27   28 ar  
    54   27   31 1   
    55   28   29 ar  
    56   28   55 1   
    57   29   30 ar  
    58   29   56 1   
    59   30   57 1   
    60   32   33 1   
    61   32   58 1   
@<TRIPOS>SUBSTRUCTURE
     1 36A         1 TEMP              0 ****  ****    0 ROOT
