@<TRIPOS>MOLECULE
36A
   59    62     1     0     0
SMALL
bcc


@<TRIPOS>ATOM
      1 C           3.7870    0.4300   -1.0760 c         1 36A      0.937600
      2 N           4.2640    0.9840    1.3490 nz        1 36A     -0.839600
      3 O           3.7920   -0.4310   -1.9710 o         1 36A     -0.760800
      4 N1          9.6850   -5.5940    6.6670 nb        1 36A     -0.790000
      5 C2          9.9470   -4.3250    6.2620 ca        1 36A      0.695900
      6 N3          9.1230   -3.2570    6.1410 nb        1 36A     -0.766000
      7 C4          7.8350   -3.5510    6.4970 ca        1 36A      0.451800
      8 C5          7.3940   -4.8630    6.9510 ca        1 36A     -0.228200
      9 C6          8.3900   -5.8980    7.0260 ca        1 36A      0.768200
     10 N6          8.0370   -7.1490    7.4610 nu        1 36A     -0.857900
     11 N7          6.0220   -4.8330    7.2430 nc        1 36A     -0.538100
     12 C8          5.6330   -3.5770    6.9850 cd        1 36A      0.417700
     13 N9          6.6830   -2.7490    6.5120 na        1 36A     -0.301000
     14 CA          4.0370   -0.1480    0.4070 c3        1 36A     -0.077500
     15 CB          2.8420   -1.0120    0.7740 c3        1 36A     -0.085400
     16 CD          3.6940   -1.4440    4.7180 c3        1 36A     -0.044300
     17 SD          2.6700   -0.7950    3.4320 ss        1 36A     -0.322200
     18 CG          3.0320   -1.8270    2.0250 c3        1 36A     -0.016300
     19 C1'         6.6620   -1.3280    6.2590 c3        1 36A      0.230800
     20 C2'         7.1980   -0.9400    4.8400 c3        1 36A      0.087100
     21 O2'         8.1020    0.1350    4.9700 oh        1 36A     -0.599800
     22 C27         8.9750   -8.2420    7.5240 c3        1 36A      0.266100
     23 C28         8.3460   -9.5130    8.0160 ca        1 36A     -0.106300
     24 C29         8.4010  -10.6630    7.2230 ca        1 36A     -0.108000
     25 C3'         5.9580   -0.4430    4.0680 c3        1 36A      0.124100
     26 O3'         6.1080    0.8370    3.4980 oh        1 36A     -0.623800
     27 C30         7.8490  -11.8550    7.7020 ca        1 36A      0.016400
     28 C31         7.2390  -11.9060    8.9590 ca        1 36A     -0.115000
     29 C32         7.1860  -10.7520    9.7400 ca        1 36A     -0.120000
     30 C33         7.7370   -9.5600    9.2750 ca        1 36A     -0.120000
     31 Cl34        7.9200  -13.2560    6.7420 cl        1 36A     -0.086400
     32 C4'         4.7950   -0.4670    5.0840 c3        1 36A      0.103100
     33 O4'         5.3300   -0.8190    6.3700 os        1 36A     -0.401600
     34 OXT         3.6190    1.6730   -1.1350 o         1 36A     -0.760800
     35 HN          5.2640    1.1530    1.4590 hn        1 36A      0.451467
     36 HNA         3.8480    0.7950    2.2720 hn        1 36A      0.451467
     37 H2         11.0090   -4.1390    5.9880 h5        1 36A      0.054100
     38 HN6         7.0800   -7.3220    7.6700 hn        1 36A      0.464800
     39 H8          4.6200   -3.1730    7.1110 h5        1 36A      0.083800
     40 HA          4.9710   -0.7710    0.3750 hx        1 36A      0.082700
     41 HB          2.6900   -1.7060   -0.1040 hc        1 36A      0.098700
     42 HBA         1.9120   -0.3860    0.8550 hc        1 36A      0.098700
     43 HD          4.1170   -2.4390    4.4420 h1        1 36A      0.092700
     44 HDA         3.0370   -1.5920    5.6140 h1        1 36A      0.092700
     45 HG          4.0670   -2.2380    2.0890 h1        1 36A      0.074200
     46 HGA         2.3200   -2.6900    2.0290 h1        1 36A      0.074200
     47 H1'         7.2550   -0.8000    7.0670 h2        1 36A      0.110700
     48 H2'         7.6770   -1.8040    4.3080 h1        1 36A      0.094700
     49 HO2'        8.9660   -0.2460    5.1830 ho        1 36A      0.443000
     50 H27         9.4250   -8.4070    6.5000 h1        1 36A      0.066200
     51 H27A        9.8200   -7.9620    8.2210 h1        1 36A      0.066200
     52 H29         8.8760  -10.6310    6.2310 ha        1 36A      0.152000
     53 H3'         5.7460   -1.1190    3.1930 h1        1 36A      0.084700
     54 HO3'        6.6010    1.3990    4.1120 ho        1 36A      0.448000
     55 H31         6.8050  -12.8470    9.3300 ha        1 36A      0.151000
     56 H32         6.7070  -10.7860   10.7310 ha        1 36A      0.142000
     57 H33         7.7000   -8.6560    9.9010 ha        1 36A      0.143000
     58 H4'         4.3680    0.5670    5.2240 h1        1 36A      0.096700
     59 HN3         3.8340    1.8230    0.9120 hn        1 36A      0.451467
@<TRIPOS>BOND
     1    1    3 1   
     2    1   14 1   
     3    1   34 1   
     4    2   14 1   
     5    2   35 1   
     6    2   36 1   
     7    2   59 1   
     8    4    5 ar  
     9    4    9 ar  
    10    5    6 ar  
    11    5   37 1   
    12    6    7 ar  
    13    7    8 ar  
    14    7   13 1   
    15    8    9 ar  
    16    8   11 1   
    17    9   10 1   
    18   10   22 1   
    19   10   38 1   
    20   11   12 2   
    21   12   13 1   
    22   12   39 1   
    23   13   19 1   
    24   14   15 1   
    25   14   40 1   
    26   15   18 1   
    27   15   41 1   
    28   15   42 1   
    29   16   17 1   
    30   16   32 1   
    31   16   43 1   
    32   16   44 1   
    33   17   18 1   
    34   18   45 1   
    35   18   46 1   
    36   19   20 1   
    37   19   33 1   
    38   19   47 1   
    39   20   21 1   
    40   20   25 1   
    41   20   48 1   
    42   21   49 1   
    43   22   23 1   
    44   22   50 1   
    45   22   51 1   
    46   23   24 ar  
    47   23   30 ar  
    48   24   27 ar  
    49   24   52 1   
    50   25   26 1   
    51   25   32 1   
    52   25   53 1   
    53   26   54 1   
    54   27   28 ar  
    55   27   31 1   
    56   28   29 ar  
    57   28   55 1   
    58   29   30 ar  
    59   29   56 1   
    60   30   57 1   
    61   32   33 1   
    62   32   58 1   
@<TRIPOS>SUBSTRUCTURE
     1 36A         1 TEMP              0 ****  ****    0 ROOT
