@<TRIPOS>MOLECULE
36A
   58    51     1     0     0
SMALL
bcc


@<TRIPOS>ATOM
      1 C          -3.8700    7.1680   -5.6450 c1        1 36A      0.309000
      2 N          -1.5340    7.8110   -5.4700 n3        1 36A     -0.330000
      3 O          -4.4870    7.9200   -4.8280 o         1 36A     -0.577000
      4 N1          0.9800   -2.6550    4.3390 n1        1 36A     -0.268000
      5 C2          1.2440   -1.3280    4.5790 c1        1 36A      0.005000
      6 N3          1.2610   -0.4420    3.5520 n1        1 36A     -0.187000
      7 C4          1.0140   -0.8700    2.2710 c1        1 36A     -0.079000
      8 C5          0.7540   -2.1790    2.0320 c1        1 36A     -0.079000
      9 C6          0.7370   -3.0790    3.0820 c1        1 36A      0.210000
     10 N6          0.4320   -4.5230    2.8870 n3        1 36A     -0.293000
     11 N7          0.5470   -2.3310    0.6740 n1        1 36A     -0.156000
     12 C8          0.6830   -1.1040    0.0840 c1        1 36A     -0.035000
     13 N9          0.9710   -0.1970    1.0580 n1        1 36A     -0.156000
     14 CA         -2.4270    6.7070   -5.3320 c2        1 36A     -0.127000
     15 CB         -2.3570    6.1840   -3.9320 c3        1 36A     -0.150000
     16 CD         -0.2990    2.9090   -2.1430 c3        1 36A     -0.288000
     17 SD         -1.5160    4.2110   -2.2320 ss        1 36A      0.010000
     18 CG         -1.5760    4.8660   -3.9200 c3        1 36A     -0.246000
     19 C1'         1.0360    1.2070    0.8340 c2        1 36A      0.115000
     20 C2'         2.1600    1.5170    0.2230 c3        1 36A     -0.010000
     21 O2'         3.1970    1.9150    1.2230 oh        1 36A     -0.319000
     22 C27         0.4800   -5.4260    4.0070 c3        1 36A      0.008000
     23 C28         0.2130   -6.8550    3.5230 c2        1 36A     -0.086000
     24 C29         1.2770   -7.6900    3.2120 c2        1 36A     -0.107000
     25 C3'         1.7990    2.7230   -0.6970 c3        1 36A     -0.019000
     26 O3'         2.3160    3.8560   -0.2060 oh        1 36A     -0.357000
     27 C30         1.0450   -9.0250    2.9080 c1        1 36A     -0.063000
     28 C31        -0.2490   -9.5230    2.9150 c1        1 36A     -0.125000
     29 C32        -1.3110   -8.6890    3.2250 c1        1 36A     -0.125000
     30 C33        -1.0800   -7.3550    3.5290 c1        1 36A     -0.119000
     31 CL34        2.3430  -10.0160    2.3310 cl        1 36A     -0.018000
     32 C4'         0.2270    2.7960   -0.7030 c3        1 36A      0.002000
     33 O4'        -0.1700    1.6780   -0.1620 os        1 36A     -0.272000
     34 OXT        -4.4080    6.8520   -6.7340 o         1 36A     -0.577000
     35 HN         -1.8520    8.3840   -6.1100 hn        1 36A      0.128500
     36 HNA        -0.6960    7.5020   -5.7180 hn        1 36A      0.128500
     37 H2          1.5210   -1.0300    5.5050 ha        1 36A      0.181000
     38 HN6         0.1500   -4.8370    2.0380 hn        1 36A      0.240000
     39 H8          0.6370   -0.9280   -0.8320 DU        1 36A      0.212000
     40 HA         -2.1720    6.0060   -5.9510 h4        1 36A      0.090000
     41 HB         -3.2660    6.0330   -3.5910 hc        1 36A      0.093000
     42 HBA        -1.9040    6.8300   -3.3690 hc        1 36A      0.093000
     43 HD          0.4360    3.1130   -2.7400 h1        1 36A      0.121500
     44 HDA        -0.7130    2.0520   -2.4100 h1        1 36A      0.121500
     45 HG         -0.6300    5.0340   -4.2520 h1        1 36A      0.109500
     46 HGA        -2.0200    4.2140   -4.5100 h1        1 36A      0.109500
     47 H1'         0.9730    1.6880    1.6880 h4        1 36A      0.162000
     48 H2'         2.4840    0.7430   -0.3260 h1        1 36A      0.127000
     49 HO2'        4.0330    1.8320    0.8500 ho        1 36A      0.231000
     50 H27        -0.2040   -5.1700    4.6630 h1        1 36A      0.099000
     51 H27A        1.3580   -5.3820    4.4200 h1        1 36A      0.099000
     52 H29         2.2120   -7.3300    3.2070 ha        1 36A      0.163000
     53 H3'         2.1300    2.5650   -1.6010 h1        1 36A      0.156000
     54 HO3'        2.6410    4.3270   -0.8530 ho        1 36A      0.278000
     55 H31        -0.4120  -10.4610    2.7010 ha        1 36A      0.139500
     56 H32        -2.2380   -9.0140    3.1200 ha        1 36A      0.139500
     57 H33        -1.8160   -6.7780    3.7430 ha        1 36A      0.139000
     58 H4'        -0.0840    3.5750   -0.1580 h1        1 36A      0.150000
@<TRIPOS>BOND
     1    1    3 1   
     2    1   34 1   
     3    2   14 1   
     4    2   35 1   
     5    2   36 1   
     6    4    9 1   
     7    5    6 1   
     8    5   37 1   
     9    7    8 1   
    10    9   10 1   
    11   10   22 1   
    12   10   38 1   
    13   11   12 1   
    14   12   13 1   
    15   14   15 1   
    16   14   40 1   
    17   15   18 1   
    18   15   41 1   
    19   15   42 1   
    20   16   17 1   
    21   16   32 1   
    22   16   43 1   
    23   16   44 1   
    24   17   18 1   
    25   18   45 1   
    26   18   46 1   
    27   19   20 1   
    28   19   33 1   
    29   19   47 1   
    30   20   21 1   
    31   20   25 1   
    32   20   48 1   
    33   21   49 1   
    34   22   23 1   
    35   22   50 1   
    36   22   51 1   
    37   23   24 1   
    38   23   30 1   
    39   24   27 1   
    40   24   52 1   
    41   25   26 1   
    42   25   32 1   
    43   25   53 1   
    44   26   54 1   
    45   27   31 1   
    46   28   29 1   
    47   28   55 1   
    48   29   56 1   
    49   30   57 1   
    50   32   33 1   
    51   32   58 1   
@<TRIPOS>SUBSTRUCTURE
     1 36A         1 TEMP              0 ****  ****    0 ROOT
