@<TRIPOS>MOLECULE
36A
   59    62     1     0     0
SMALL
bcc


@<TRIPOS>ATOM
      1 C           3.8120    0.4430   -1.0790 c         1 36A      0.937600
      2 N           4.2960    0.9950    1.3440 n4        1 36A     -0.839600
      3 O           3.8100   -0.4170   -1.9750 o         1 36A     -0.760800
      4 N1          9.6730   -5.6160    6.6700 nb        1 36A     -0.790000
      5 C2          9.9440   -4.3480    6.2650 ca        1 36A      0.695900
      6 N3          9.1260   -3.2750    6.1430 nb        1 36A     -0.766000
      7 C4          7.8370   -3.5610    6.4970 ca        1 36A      0.451800
      8 C5          7.3870   -4.8690    6.9520 ca        1 36A     -0.228200
      9 C6          8.3760   -5.9110    7.0290 ca        1 36A      0.768200
     10 N6          8.0140   -7.1590    7.4640 nh        1 36A     -0.857900
     11 N7          6.0140   -4.8310    7.2420 nc        1 36A     -0.538100
     12 C8          5.6340   -3.5720    6.9840 cd        1 36A      0.417700
     13 N9          6.6890   -2.7520    6.5110 na        1 36A     -0.301000
     14 CA          4.0590   -0.1360    0.4030 c3        1 36A     -0.077500
     15 CB          2.8590   -0.9900    0.7720 c3        1 36A     -0.085400
     16 CD          3.7090   -1.4260    4.7160 c3        1 36A     -0.044300
     17 SD          2.6900   -0.7700    3.4300 ss        1 36A     -0.322200
     18 CG          3.0430   -1.8060    2.0230 c3        1 36A     -0.016300
     19 C1'         6.6780   -1.3310    6.2560 c3        1 36A      0.230800
     20 C2'         7.2170   -0.9480    4.8380 c3        1 36A      0.087100
     21 O2'         8.1280    0.1210    4.9670 oh        1 36A     -0.599800
     22 C27         8.9450   -8.2590    7.5280 c3        1 36A      0.266100
     23 C28         8.3080   -9.5260    8.0200 ca        1 36A     -0.106300
     24 C29         8.3570  -10.6760    7.2280 ca        1 36A     -0.108000
     25 C3'         5.9800   -0.4430    4.0650 c3        1 36A      0.124100
     26 O3'         6.1390    0.8360    3.4930 oh        1 36A     -0.623800
     27 C30         7.7980  -11.8650    7.7060 ca        1 36A      0.016400
     28 C31         7.1840  -11.9120    8.9620 ca        1 36A     -0.115000
     29 C32         7.1370  -10.7570    9.7420 ca        1 36A     -0.120000
     30 C33         7.6960   -9.5680    9.2770 ca        1 36A     -0.120000
     31 CL34        7.8620  -13.2660    6.7470 cl        1 36A     -0.086400
     32 C4'         4.8170   -0.4570    5.0810 c3        1 36A      0.103100
     33 O4'         5.3500   -0.8130    6.3670 os        1 36A     -0.401600
     34 OXT         3.6540    1.6880   -1.1390 o         1 36A     -0.760800
     35 HN          5.2980    1.1560    1.4540 hn        1 36A      0.451467
     36 HNA         3.8720    1.8370    0.9070 hn        1 36A      0.451467
     37 H2         11.0070   -4.1690    5.9920 h5        1 36A      0.054100
     38 HN6         7.0560   -7.3260    7.6720 hn        1 36A      0.464800
     39 H8          4.6230   -3.1610    7.1080 h5        1 36A      0.083800
     40 HA          4.9890   -0.7660    0.3700 hx        1 36A      0.082700
     41 HB          1.9340   -0.3570    0.8530 hc        1 36A      0.098700
     42 HBA         2.7010   -1.6840   -0.1060 hc        1 36A      0.098700
     43 HD          3.0510   -1.5690    5.6120 h1        1 36A      0.092700
     44 HDA         4.1250   -2.4250    4.4410 h1        1 36A      0.092700
     45 HG          2.3260   -2.6640    2.0290 h1        1 36A      0.074200
     46 HGA         4.0760   -2.2240    2.0870 h1        1 36A      0.074200
     47 H1'         7.2750   -0.8060    7.0650 h2        1 36A      0.110700
     48 H2'         7.6900   -1.8150    4.3060 h1        1 36A      0.094700
     49 HO2'        8.9890   -0.2650    5.1810 ho        1 36A      0.443000
     50 H27         9.3950   -8.4260    6.5050 h1        1 36A      0.066200
     51 H27A        9.7910   -7.9830    8.2260 h1        1 36A      0.066200
     52 H29         8.8350  -10.6470    6.2360 ha        1 36A      0.152000
     53 H3'         5.7640   -1.1180    3.1910 h1        1 36A      0.084700
     54 HO3'        6.6360    1.3950    4.1070 ho        1 36A      0.448000
     55 H31         6.7440  -12.8500    9.3320 ha        1 36A      0.151000
     56 H32         6.6560  -10.7870   10.7320 ha        1 36A      0.142000
     57 H33         7.6630   -8.6630    9.9030 ha        1 36A      0.143000
     58 H4'         4.3980    0.5800    5.2200 h1        1 36A      0.096700
     59 HN3         3.8790    0.8100    2.2680 hn        1 36A      0.451467
@<TRIPOS>BOND
     1    1    3 1   
     2    1   14 1   
     3    1   34 1   
     4    2   14 1   
     5    2   35 1   
     6    2   36 1   
     7    2   59 1   
     8    4    5 ar  
     9    4    9 ar  
    10    5    6 ar  
    11    5   37 1   
    12    6    7 ar  
    13    7    8 ar  
    14    7   13 1   
    15    8    9 ar  
    16    8   11 1   
    17    9   10 1   
    18   10   22 1   
    19   10   38 1   
    20   11   12 2   
    21   12   13 1   
    22   12   39 1   
    23   13   19 1   
    24   14   15 1   
    25   14   40 1   
    26   15   18 1   
    27   15   41 1   
    28   15   42 1   
    29   16   17 1   
    30   16   32 1   
    31   16   43 1   
    32   16   44 1   
    33   17   18 1   
    34   18   45 1   
    35   18   46 1   
    36   19   20 1   
    37   19   33 1   
    38   19   47 1   
    39   20   21 1   
    40   20   25 1   
    41   20   48 1   
    42   21   49 1   
    43   22   23 1   
    44   22   50 1   
    45   22   51 1   
    46   23   24 ar  
    47   23   30 ar  
    48   24   27 ar  
    49   24   52 1   
    50   25   26 1   
    51   25   32 1   
    52   25   53 1   
    53   26   54 1   
    54   27   28 ar  
    55   27   31 1   
    56   28   29 ar  
    57   28   55 1   
    58   29   30 ar  
    59   29   56 1   
    60   30   57 1   
    61   32   33 1   
    62   32   58 1   
@<TRIPOS>SUBSTRUCTURE
     1 36A         1 TEMP              0 ****  ****    0 ROOT
