@<TRIPOS>MOLECULE
36C
   36    38     1     0     0
SMALL
bcc


@<TRIPOS>ATOM
      1 FAW        -0.0980   -0.1910   -0.1310 f         1 36C     -0.153900
      2 CAV         1.2520   -0.0880   -0.0530 ca        1 36C      0.109900
      3 CAY         1.9450   -0.7490    0.9770 ca        1 36C     -0.168500
      4 CAZ         3.3300   -0.6370    1.0490 ca        1 36C     -0.094500
      5 CAU         1.9550    0.6780   -1.0000 ca        1 36C     -0.168500
      6 CAT         3.3410    0.7730   -0.9150 ca        1 36C     -0.094500
      7 CAS         4.0380    0.1170    0.1060 ca        1 36C     -0.096300
      8 CAR         5.5370    0.1580    0.1980 c3        1 36C      0.252100
      9 NAQ         6.1130    1.4150   -0.2070 nu        1 36C     -0.844900
     10 CAP         7.4840    1.6170   -0.1260 ca        1 36C      0.571900
     11 CAC         7.9940    3.0070   -0.3540 ca        1 36C      0.288500
     12 CAB         6.9460    4.1300   -0.5970 c         1 36C      0.827100
     13 OAA         6.0580    4.2400    0.2930 o         1 36C     -0.791800
     14 OBA         7.0340    4.7880   -1.6550 o         1 36C     -0.791800
     15 NAD         9.2770    3.2700   -0.3380 nb        1 36C     -0.625000
     16 CAE        10.1650    2.2160   -0.1230 ca        1 36C      0.274300
     17 CAF        11.5660    2.4570   -0.1110 ca        1 36C     -0.143300
     18 CAG        12.4510    1.4250    0.0970 ca        1 36C     -0.135000
     19 NAO         8.3290    0.5920    0.0960 nb        1 36C     -0.770000
     20 CAN         9.6810    0.8810    0.0850 ca        1 36C      0.319300
     21 CAM        10.6230   -0.1670    0.2960 ca        1 36C     -0.127300
     22 CAH        11.9730    0.1130    0.3010 ca        1 36C     -0.175300
     23 CAI        12.9820   -0.9970    0.5440 c3        1 36C      0.688200
     24 FAJ        12.5400   -2.2680    0.2590 f         1 36C     -0.249300
     25 FAK        14.1470   -0.8900   -0.1800 f         1 36C     -0.249300
     26 FAL        13.4240   -1.0960    1.8440 f         1 36C     -0.249300
     27 H1          1.3890   -1.3410    1.7160 ha        1 36C      0.142000
     28 H2          3.8720   -1.1480    1.8600 ha        1 36C      0.149500
     29 H3          1.4060    1.2000   -1.7960 ha        1 36C      0.142000
     30 H4          3.8850    1.3760   -1.6610 ha        1 36C      0.149500
     31 H5          5.9480   -0.6530   -0.4760 h1        1 36C      0.051700
     32 H6          5.8460   -0.1030    1.2550 h1        1 36C      0.051700
     33 H7          5.5590    2.2400   -0.0360 hn        1 36C      0.476800
     34 H9         11.9340    3.4830   -0.2730 ha        1 36C      0.149000
     35 H10        13.5360    1.6050    0.1020 ha        1 36C      0.134000
     36 H11        10.2640   -1.1970    0.4510 ha        1 36C      0.151000
@<TRIPOS>BOND
     1    1    2 1   
     2    2    3 ar  
     3    2    5 ar  
     4    3    4 ar  
     5    3   27 1   
     6    4    7 ar  
     7    4   28 1   
     8    5    6 ar  
     9    5   29 1   
    10    6    7 ar  
    11    6   30 1   
    12    7    8 1   
    13    8    9 1   
    14    8   31 1   
    15    8   32 1   
    16    9   10 1   
    17    9   33 1   
    18   10   11 ar  
    19   10   19 ar  
    20   11   12 1   
    21   11   15 ar  
    22   12   13 1   
    23   12   14 1   
    24   15   16 ar  
    25   16   17 ar  
    26   16   20 ar  
    27   17   18 ar  
    28   17   34 1   
    29   18   22 ar  
    30   18   35 1   
    31   19   20 ar  
    32   20   21 ar  
    33   21   22 ar  
    34   21   36 1   
    35   22   23 1   
    36   23   24 1   
    37   23   25 1   
    38   23   26 1   
@<TRIPOS>SUBSTRUCTURE
     1 36C         1 TEMP              0 ****  ****    0 ROOT
