@<TRIPOS>MOLECULE
36D
   41    41     1     0     0
SMALL
bcc


@<TRIPOS>ATOM
      1 N1         -0.2460   -0.1480    0.7470 nz        1 36D     -0.839600
      2 C1          0.9000    0.8030    0.5790 c3        1 36D      0.135500
      3 O1          2.1270   -0.9810   -0.4160 oh        1 36D     -0.606800
      4 C2          1.7480    0.8910    1.8590 c3        1 36D     -0.015100
      5 C3          0.9290    1.1640    3.0480 cc        1 36D     -0.230400
      6 S1          0.7140    2.6870    3.7080 ss        1 36D      0.121200
      7 C4         -0.2110    2.1410    4.9710 cc        1 36D     -0.151100
      8 C5         -0.3700    0.7680    4.9410 cd        1 36D     -0.147000
      9 C6          0.3010    0.1950    3.8240 cd        1 36D     -0.169000
     10 C7          1.8000    0.3830   -0.6100 c3        1 36D      0.053100
     11 C8          1.0480    0.5480   -1.9440 c         1 36D      0.623100
     12 O2         -0.2010    0.5090   -1.9610 o         1 36D     -0.615100
     13 N2          1.8040    0.7240   -3.0840 ns        1 36D     -0.500900
     14 C9          1.3190    0.1960   -4.3460 c3        1 36D     -0.003300
     15 C10         2.1350    0.6940   -5.5470 c3        1 36D     -0.087400
     16 C11         1.9270    2.1720   -5.7950 c3        1 36D     -0.079400
     17 C12         2.6530    2.6160   -7.0390 c3        1 36D     -0.100100
     18 C13         1.3350   -1.3390   -4.3210 c         1 36D      0.605100
     19 O3          0.7940   -2.0460   -5.3410 oh        1 36D     -0.537100
     20 O4          1.7880   -2.0280   -3.4010 o         1 36D     -0.528000
     21 H1          0.1200   -1.1070    0.7840 hn        1 36D      0.472800
     22 H2         -0.7400    0.0620    1.6230 hn        1 36D      0.472800
     23 H4          0.4510    1.8140    0.3420 hx        1 36D      0.117700
     24 H5          2.4490   -1.3570   -1.2540 ho        1 36D      0.470000
     25 H6          2.3210   -0.0700    1.9880 hc        1 36D      0.096700
     26 H7          2.5030    1.7100    1.6990 hc        1 36D      0.096700
     27 H8         -0.6270    2.8010    5.7350 h4        1 36D      0.197000
     28 H9         -0.9250    0.1810    5.6780 ha        1 36D      0.177000
     29 H10         0.3510   -0.8830    3.6490 ha        1 36D      0.152000
     30 H11         2.7350    1.0120   -0.5780 h1        1 36D      0.099700
     31 H12         0.4380   -1.4480   -6.0170 ho        1 36D      0.442000
     32 H13         0.2390    0.5230   -4.4630 h1        1 36D      0.117700
     33 H14         1.8090    0.1140   -6.4520 hc        1 36D      0.066200
     34 H15         3.2260    0.4810   -5.3940 hc        1 36D      0.066200
     35 H16         0.8300    2.3860   -5.9020 hc        1 36D      0.049200
     36 H17         2.2950    2.7620   -4.9150 hc        1 36D      0.049200
     37 H18         3.7500    2.4280   -6.9470 hc        1 36D      0.047033
     38 H19         2.4960    3.7100   -7.2040 hc        1 36D      0.047033
     39 H20         2.2770    2.0680   -7.9370 hc        1 36D      0.047033
     40 H131       -0.8800   -0.0610   -0.0620 hn        1 36D      0.472800
     41 H22         2.7970    0.7290   -2.9830 hn        1 36D      0.321500
@<TRIPOS>BOND
     1    1    2 1   
     2    1   21 1   
     3    1   22 1   
     4    1   40 1   
     5    2    4 1   
     6    2   10 1   
     7    2   23 1   
     8    3   10 1   
     9    3   24 1   
    10    4    5 1   
    11    4   25 1   
    12    4   26 1   
    13    5    6 1   
    14    5    9 2   
    15    6    7 1   
    16    7    8 2   
    17    7   27 1   
    18    8    9 1   
    19    8   28 1   
    20    9   29 1   
    21   10   11 1   
    22   10   30 1   
    23   11   12 2   
    24   11   13 1   
    25   13   14 1   
    26   13   41 1   
    27   14   15 1   
    28   14   18 1   
    29   14   32 1   
    30   15   16 1   
    31   15   33 1   
    32   15   34 1   
    33   16   17 1   
    34   16   35 1   
    35   16   36 1   
    36   17   37 1   
    37   17   38 1   
    38   17   39 1   
    39   18   19 1   
    40   18   20 2   
    41   19   31 1   
@<TRIPOS>SUBSTRUCTURE
     1 36D         1 TEMP              0 ****  ****    0 ROOT
