@<TRIPOS>MOLECULE
36D
   41    41     1     0     0
SMALL
bcc


@<TRIPOS>ATOM
      1 N1         -0.1990   -0.1370    0.7830 n4        1 36D     -0.839600
      2 C1          0.9480    0.8090    0.5850 c3        1 36D      0.135500
      3 O1          2.1420   -0.9840   -0.4340 oh        1 36D     -0.606800
      4 C2          1.8250    0.8960    1.8450 c3        1 36D     -0.015100
      5 C3          1.0360    1.1760    3.0520 cc        1 36D     -0.230400
      6 S1          0.8440    2.7010    3.7120 ss        1 36D      0.121200
      7 C4         -0.0530    2.1640    4.9980 cc        1 36D     -0.151100
      8 C5         -0.2200    0.7920    4.9750 cd        1 36D     -0.147000
      9 C6          0.4220    0.2120    3.8450 cd        1 36D     -0.169000
     10 C7          1.8170    0.3820   -0.6240 c3        1 36D      0.053100
     11 C8          1.0350    0.5470   -1.9400 c         1 36D      0.623100
     12 O2         -0.2140    0.5140   -1.9280 o         1 36D     -0.615100
     13 N2          1.7650    0.7170   -3.0980 n         1 36D     -0.500900
     14 C9          1.2480    0.1890   -4.3470 c3        1 36D     -0.003300
     15 C10         2.0370    0.6790   -5.5680 c3        1 36D     -0.087400
     16 C11         1.8310    2.1580   -5.8140 c3        1 36D     -0.079400
     17 C12         2.5300    2.5960   -7.0770 c3        1 36D     -0.100100
     18 C13         1.2560   -1.3470   -4.3190 c         1 36D      0.605100
     19 O3          0.6880   -2.0530   -5.3240 oh        1 36D     -0.537100
     20 O4          1.7270   -2.0360   -3.4080 o         1 36D     -0.528000
     21 H1         -0.6710    0.0790    1.6690 hn        1 36D      0.472800
     22 H2          0.1640   -1.0970    0.8130 hn        1 36D      0.472800
     23 H4          0.4980    1.8210    0.3560 hx        1 36D      0.117700
     24 H5          2.4420   -1.3630   -1.2790 ho        1 36D      0.470000
     25 H6          2.5810    1.7100    1.6650 hc        1 36D      0.096700
     26 H7          2.3960   -0.0680    1.9630 hc        1 36D      0.096700
     27 H8         -0.4480    2.8290    5.7700 h4        1 36D      0.197000
     28 H9         -0.7600    0.2100    5.7270 ha        1 36D      0.177000
     29 H10         0.4630   -0.8660    3.6720 ha        1 36D      0.152000
     30 H11         2.7560    1.0050   -0.6150 h1        1 36D      0.099700
     31 H12         2.7600    0.7170   -3.0200 hn        1 36D      0.321500
     32 H13         0.1670    0.5210   -4.4390 h1        1 36D      0.117700
     33 H14         3.1310    0.4610   -5.4410 hc        1 36D      0.066200
     34 H15         1.6870    0.0990   -6.4640 hc        1 36D      0.066200
     35 H16         0.7330    2.3780   -5.8960 hc        1 36D      0.049200
     36 H17         2.2230    2.7480   -4.9450 hc        1 36D      0.049200
     37 H18         3.6280    2.4020   -7.0100 hc        1 36D      0.047033
     38 H19         2.3740    3.6900   -7.2400 hc        1 36D      0.047033
     39 H20         2.1300    2.0480   -7.9630 hc        1 36D      0.047033
     40 H131       -0.8520   -0.0480   -0.0110 hn        1 36D      0.472800
     41 H22         0.3190   -1.4550   -5.9930 ho        1 36D      0.442000
@<TRIPOS>BOND
     1    1    2 1   
     2    1   21 1   
     3    1   22 1   
     4    1   40 1   
     5    2    4 1   
     6    2   10 1   
     7    2   23 1   
     8    3   10 1   
     9    3   24 1   
    10    4    5 1   
    11    4   25 1   
    12    4   26 1   
    13    5    6 1   
    14    5    9 2   
    15    6    7 1   
    16    7    8 2   
    17    7   27 1   
    18    8    9 1   
    19    8   28 1   
    20    9   29 1   
    21   10   11 1   
    22   10   30 1   
    23   11   12 2   
    24   11   13 1   
    25   13   14 1   
    26   13   31 1   
    27   14   15 1   
    28   14   18 1   
    29   14   32 1   
    30   15   16 1   
    31   15   33 1   
    32   15   34 1   
    33   16   17 1   
    34   16   35 1   
    35   16   36 1   
    36   17   37 1   
    37   17   38 1   
    38   17   39 1   
    39   18   19 1   
    40   18   20 2   
    41   19   41 1   
@<TRIPOS>SUBSTRUCTURE
     1 36D         1 TEMP              0 ****  ****    0 ROOT
