@<TRIPOS>MOLECULE
36E
   18    18     1     0     0
SMALL
bcc


@<TRIPOS>ATOM
      1 CAA        -1.1410   -0.0130    0.4590 c1        1 36E      0.250000
      2 CAB         1.4350   -0.2300   -0.2010 c3        1 36E     -0.178000
      3 FAC         5.6210    1.0420    3.1440 f         1 36E     -0.146000
      4 CAD        -1.1710    0.1440    1.7730 c2        1 36E     -0.461000
      5 CAE        -0.1070    0.1970    2.7040 c1        1 36E     -0.038000
      6 CAF         1.2480    0.0840    2.3620 c2        1 36E     -0.156000
      7 CAG         2.0100   -0.1010    1.1480 c2        1 36E     -0.027000
      8 FAH         4.6480    0.2030    4.8990 f         1 36E     -0.146000
      9 CAJ         3.4530    0.0170    2.7900 c2        1 36E     -0.092000
     10 NAK         2.2210    0.1530    3.3860 na        1 36E     -0.106000
     11 NAL         3.3620   -0.1400    1.4300 n2        1 36E     -0.109000
     12 FAM         5.5050   -1.1200    3.4010 f         1 36E     -0.146000
     13 HAA         0.7520   -1.1210   -0.2400 hc        1 36E      0.116000
     14 HAB         2.2250   -0.3650   -0.9820 hc        1 36E      0.116000
     15 HAD         0.8490    0.6940   -0.4560 hc        1 36E      0.116000
     16 HAE        -2.1740    0.2550    2.2540 ha        1 36E      0.209000
     17 HNAK        2.0210    0.2780    4.3500 hn        1 36E      0.287000
     18 CAI         4.7860    0.0340    3.5430 c3        1 36E      0.512000
@<TRIPOS>BOND
     1    1    4 1   
     2    2    7 1   
     3    2   13 1   
     4    2   14 1   
     5    2   15 1   
     6    3   18 1   
     7    4    5 1   
     8    4   16 1   
     9    5    6 1   
    10    6    7 1   
    11    6   10 1   
    12    7   11 1   
    13    8   18 1   
    14    9   10 1   
    15    9   11 1   
    16    9   18 1   
    17   10   17 1   
    18   12   18 1   
@<TRIPOS>SUBSTRUCTURE
     1 36E         1 TEMP              0 ****  ****    0 ROOT
