@<TRIPOS>MOLECULE
36E
   18    19     1     0     0
SMALL
bcc


@<TRIPOS>ATOM
      1 CAA         3.6990   -0.7260   -0.1040 ca        1 36E     -0.153000
      2 CAB         2.5140   -1.4340   -0.2090 ca        1 36E     -0.055000
      3 FAC        -2.8560   -0.7760    0.9590 f         1 36E     -0.221300
      4 CAD         3.7170    0.6700    0.0930 ca        1 36E     -0.097000
      5 CAE         2.5520    1.4120    0.1930 ca        1 36E     -0.137000
      6 CAF         1.3380    0.7170    0.0890 ca        1 36E     -0.055200
      7 CAG         1.3060   -0.7240   -0.1150 ca        1 36E      0.053400
      8 FAH        -2.8330    1.2380    0.1430 f         1 36E     -0.221300
      9 CAJ        -0.7670   -0.0380   -0.0270 cc        1 36E      0.315800
     10 NAK         0.0060    1.1280    0.1410 na        1 36E     -0.252300
     11 NAL        -0.0310   -1.1570   -0.1820 nd        1 36E     -0.497100
     12 FAM        -2.8460   -0.4720   -1.1980 f         1 36E     -0.221300
     13 HAA         4.6580   -1.2610   -0.1750 ha        1 36E      0.139000
     14 HAB         2.5060   -2.5230   -0.3630 ha        1 36E      0.154000
     15 HAD         4.6890    1.1810    0.1700 ha        1 36E      0.138000
     16 HAE         2.5740    2.4990    0.3470 ha        1 36E      0.141000
     17 HNAK       -0.3380    2.0430    0.2690 hn        1 36E      0.320700
     18 CAI        -2.2960   -0.0150   -0.0310 c3        1 36E      0.648600
@<TRIPOS>BOND
     1    1    2 ar  
     2    1    4 ar  
     3    1   13 1   
     4    2    7 ar  
     5    2   14 1   
     6    3   18 1   
     7    4    5 ar  
     8    4   15 1   
     9    5    6 ar  
    10    5   16 1   
    11    6    7 ar  
    12    6   10 1   
    13    7   11 1   
    14    8   18 1   
    15    9   10 1   
    16    9   11 2   
    17    9   18 1   
    18   10   17 1   
    19   12   18 1   
@<TRIPOS>SUBSTRUCTURE
     1 36E         1 TEMP              0 ****  ****    0 ROOT
