@<TRIPOS>MOLECULE
36E
   18    13     1     0     0
SMALL
bcc


@<TRIPOS>ATOM
      1 CAA        -1.9470    0.0190   -2.0200 c1        1 36E     -0.125000
      2 CAB        -0.5620    0.0110   -1.9740 c1        1 36E     -0.096000
      3 FAC         3.5910    1.0630    0.9260 f         1 36E     -0.150000
      4 CAD        -2.6800    0.0240   -0.8450 c1        1 36E     -0.125000
      5 CAE        -2.0280    0.0220    0.3780 c1        1 36E     -0.096000
      6 CAF        -0.6210    0.0140    0.4260 c1        1 36E     -0.048000
      7 CAG         0.1010    0.0090   -0.7310 c1        1 36E     -0.048000
      8 FAH         3.5460   -1.1190    0.7970 f         1 36E     -0.150000
      9 CAI         2.9700   -0.0450    1.3520 c3        1 36E      0.510000
     10 CAJ         1.5120    0.0090    0.9520 c2        1 36E     -0.086000
     11 NAK         0.2530    0.0140    1.4630 n1        1 36E     -0.139500
     12 NAL         1.4170    0.0060   -0.4040 n1        1 36E     -0.139500
     13 FAM         3.0650   -0.1250    2.6850 f         1 36E     -0.150000
     14 HAA        -2.4060    0.0200   -2.8820 ha        1 36E      0.138500
     15 HAB        -0.0450    0.0080   -2.8020 ha        1 36E      0.147500
     16 HAD        -3.6550    0.0290   -0.8780 ha        1 36E      0.138500
     17 HAE        -2.5440    0.0250    1.2070 ha        1 36E      0.147500
     18 HNAK        0.0340    0.0150    2.3490 DU        1 36E      0.271000
@<TRIPOS>BOND
     1    1    4 1   
     2    1   14 1   
     3    2    7 1   
     4    2   15 1   
     5    3    9 1   
     6    4   16 1   
     7    5    6 1   
     8    5   17 1   
     9    8    9 1   
    10    9   10 1   
    11    9   13 1   
    12   10   11 1   
    13   10   12 1   
@<TRIPOS>SUBSTRUCTURE
     1 36E         1 TEMP              0 ****  ****    0 ROOT
