@<TRIPOS>MOLECULE
36F
   66    70     1     0     0
SMALL
bcc


@<TRIPOS>ATOM
      1 CAA         9.6510    3.5290   -0.9620 c3        1 36F     -0.056800
      2 OAB       -10.9220   -2.5710    0.3480 o         1 36F     -0.615500
      3 OAC         7.6770   -3.0760    1.2110 o         1 36F     -0.569500
      4 CAD        10.4230    1.9610    0.8200 ca        1 36F     -0.129000
      5 CAE        10.3730    0.7480    1.5220 ca        1 36F     -0.095000
      6 CAF         8.5780    1.3060   -0.6450 ca        1 36F     -0.117000
      7 CAG         0.4970   -0.8440    0.0590 cc        1 36F     -0.226600
      8 CAH        -4.3400   -0.6270   -0.8270 c3        1 36F     -0.079400
      9 CAI        -2.9640   -0.0060   -0.7100 c3        1 36F     -0.077400
     10 CAJ        -5.4220    0.4010   -0.5750 c3        1 36F     -0.081400
     11 CAK         3.9720   -0.5360   -0.5500 c3        1 36F     -0.098400
     12 CAL         5.2950   -0.4820    0.1840 c3        1 36F     -0.117400
     13 CAN        -6.8010   -0.2150   -0.7160 c3        1 36F     -0.072400
     14 CAO         2.8660    0.0030    0.3570 c3        1 36F      0.056300
     15 CAP         6.3990   -1.0550   -0.7080 c3        1 36F      0.098000
     16 CAQ        -9.5840    1.6220    1.4150 c3        1 36F     -0.045300
     17 NAR        -0.0110    0.5830   -1.6230 nd        1 36F     -0.354000
     18 NAS         1.1820    0.8370   -1.2760 nc        1 36F     -0.168800
     19 NAT       -11.1380   -0.2360    0.6730 n         1 36F     -0.513900
     20 NAU        -9.5920   -1.0560   -0.8900 n         1 36F     -0.516900
     21 OAV         9.1650   -1.4350    1.6470 os        1 36F     -0.294200
     22 SAW        -7.8780    1.1770    1.3350 ss        1 36F     -0.290200
     23 CAX       -10.5600   -1.4090    0.0980 c         1 36F      0.749500
     24 CAY         9.5510    2.2390   -0.2370 ca        1 36F     -0.067300
     25 CAZ        -0.5310   -0.4740   -0.8290 cd        1 36F      0.263600
     26 CBA         8.0810   -1.9590    0.9050 c         1 36F      0.799600
     27 CBB         9.4180   -0.1610    1.1170 ca        1 36F      0.045100
     28 CBC         8.5110    0.1000    0.0370 ca        1 36F     -0.024400
     29 CBD        -7.8840    0.7910   -0.4090 c3        1 36F     -0.009600
     30 NBE         1.5540    0.0220   -0.2580 na        1 36F      0.042400
     31 NBF         7.7210   -1.0640   -0.1430 n         1 36F     -0.335000
     32 CBG       -10.3360    0.9220    0.2900 c3        1 36F      0.057700
     33 CBH        -9.3040    0.3690   -0.7920 c3        1 36F      0.060700
     34 HAA        10.2310    3.3890   -1.9090 hc        1 36F      0.049033
     35 HAAA        8.6360    3.9160   -1.2270 hc        1 36F      0.049033
     36 HAAB       10.1720    4.3000   -0.3430 hc        1 36F      0.049033
     37 HAD        11.1730    2.7110    1.1140 ha        1 36F      0.142000
     38 HAE        11.0620    0.5310    2.3500 ha        1 36F      0.160000
     39 HAF         7.9010    1.5350   -1.4800 ha        1 36F      0.147000
     40 HAG         0.5530   -1.5960    0.8420 h4        1 36F      0.190000
     41 HAH        -4.4700   -1.0670   -1.8510 hc        1 36F      0.041200
     42 HAHA       -4.4410   -1.4670   -0.0900 hc        1 36F      0.041200
     43 HAI        -2.8620    0.8300   -1.4510 hc        1 36F      0.053200
     44 HAIA       -2.8360    0.4360    0.3120 hc        1 36F      0.053200
     45 HAJ        -5.3070    0.8290    0.4570 hc        1 36F      0.052200
     46 HAJA       -5.3110    1.2500   -1.3010 hc        1 36F      0.052200
     47 HAK         4.0310    0.0760   -1.4880 hc        1 36F      0.063200
     48 HAKA        3.7450   -1.5930   -0.8500 hc        1 36F      0.063200
     49 HAL         5.5340    0.5770    0.4620 hc        1 36F      0.056700
     50 HALA        5.2290   -1.0750    1.1340 hc        1 36F      0.056700
     51 HAM        -1.9940   -1.8870   -0.2270 hc        1 36F      0.052700
     52 HAMA       -2.0100   -1.4720   -1.9910 hc        1 36F      0.052700
     53 HAN        -6.9290   -0.5910   -1.7670 hc        1 36F      0.055200
     54 HANA       -6.8800   -1.0970   -0.0250 hc        1 36F      0.055200
     55 HAO         2.7940   -0.6360    1.2820 h1        1 36F      0.067700
     56 HAOA        3.1270    1.0550    0.6700 h1        1 36F      0.067700
     57 HAP         6.1460   -2.1250   -0.9620 h1        1 36F      0.074700
     58 HAPA        6.4510   -0.4580   -1.6630 h1        1 36F      0.074700
     59 HAQ        -9.9650    1.3490    2.4290 h1        1 36F      0.082700
     60 HAQA       -9.6950    2.7280    1.3050 h1        1 36F      0.082700
     61 HNAT      -11.4150   -0.3090    1.6250 hn        1 36F      0.312500
     62 HNAU       -8.8300   -1.6850   -1.0040 hn        1 36F      0.316500
     63 HBD        -7.6570    1.7400   -0.9660 h1        1 36F      0.083700
     64 HBG       -11.0300    1.6550   -0.2100 h1        1 36F      0.088700
     65 HBH        -9.5540    0.8200   -1.7950 h1        1 36F      0.087700
     66 CAM        -1.8840   -1.0420   -0.9590 c3        1 36F     -0.091700
@<TRIPOS>BOND
     1    1   24 1   
     2    1   34 1   
     3    1   35 1   
     4    1   36 1   
     5    2   23 2   
     6    3   26 2   
     7    4    5 ar  
     8    4   24 ar  
     9    4   37 1   
    10    5   27 ar  
    11    5   38 1   
    12    6   24 ar  
    13    6   28 ar  
    14    6   39 1   
    15    7   25 2   
    16    7   30 1   
    17    7   40 1   
    18    8    9 1   
    19    8   10 1   
    20    8   41 1   
    21    8   42 1   
    22    9   43 1   
    23    9   44 1   
    24    9   66 1   
    25   10   13 1   
    26   10   45 1   
    27   10   46 1   
    28   11   12 1   
    29   11   14 1   
    30   11   47 1   
    31   11   48 1   
    32   12   15 1   
    33   12   49 1   
    34   12   50 1   
    35   13   29 1   
    36   13   53 1   
    37   13   54 1   
    38   14   30 1   
    39   14   55 1   
    40   14   56 1   
    41   15   31 1   
    42   15   57 1   
    43   15   58 1   
    44   16   22 1   
    45   16   32 1   
    46   16   59 1   
    47   16   60 1   
    48   17   18 2   
    49   17   25 1   
    50   18   30 1   
    51   19   23 1   
    52   19   32 1   
    53   19   61 1   
    54   20   23 1   
    55   20   33 1   
    56   20   62 1   
    57   21   26 1   
    58   21   27 1   
    59   22   29 1   
    60   25   66 1   
    61   26   31 1   
    62   27   28 ar  
    63   28   31 1   
    64   29   33 1   
    65   29   63 1   
    66   32   33 1   
    67   32   64 1   
    68   33   65 1   
    69   51   66 1   
    70   52   66 1   
@<TRIPOS>SUBSTRUCTURE
     1 36F         1 TEMP              0 ****  ****    0 ROOT
