@<TRIPOS>MOLECULE
36F
   66    67     1     0     0
SMALL
bcc


@<TRIPOS>ATOM
      1 CAA         2.4730    0.3990   -7.3320 c3        1 36F     -0.206000
      2 OAB        -2.3670   -3.8440  -18.9490 o         1 36F     -0.461000
      3 OAC         5.0550   -2.6820   -3.5470 o         1 36F     -0.307000
      4 CAD         4.5870    2.9290   -2.4430 c1        1 36F     -0.142000
      5 CAE         4.3590    1.8480   -2.9050 c1        1 36F     -0.113000
      6 CAF         2.0390    0.8920   -4.9020 c2        1 36F     -0.143000
      7 CAG        -0.4250   -5.8670   -6.7090 c1        1 36F     -0.214000
      8 CAH        -1.8070   -5.1490  -11.3440 c3        1 36F     -0.157000
      9 CAI        -1.8760   -5.8290   -9.9930 c3        1 36F     -0.157000
     10 CAJ        -2.2390   -6.0900  -12.4490 c3        1 36F     -0.162000
     11 CAK         0.6300   -3.8600   -4.6140 c3        1 36F     -0.266000
     12 CAL         1.5990   -2.8990   -3.9680 c3        1 36F     -0.211000
     13 CAN        -2.2390   -5.3850  -13.7900 c3        1 36F     -0.147000
     14 CAO        -0.0400   -4.7990   -3.7730 c1        1 36F     -0.055000
     15 CAP         2.4290   -2.1950   -5.0440 c3        1 36F     -0.011000
     16 CAQ        -1.1480   -7.4920  -16.8250 c3        1 36F     -0.277000
     17 NAR        -2.7350   -5.8980   -6.9370 n2        1 36F     -0.010000
     18 NAS        -2.5470   -6.4120   -5.8330 n2        1 36F     -0.096000
     19 NAT        -0.8740   -5.1520  -17.7790 n3        1 36F     -0.371000
     20 NAU        -3.4950   -4.6410  -16.4760 n3        1 36F     -0.231000
     21 OAV         4.9570   -0.4710   -3.0780 os        1 36F     -0.151000
     22 SAW        -1.3690   -7.6220  -15.0710 ss        1 36F      0.099000
     23 CAX        -1.2100   -4.1150  -18.5950 c1        1 36F      0.060000
     24 CAY         1.7500    1.0110   -6.2030 c2        1 36F     -0.110000
     25 CAZ        -1.4690   -5.5250   -7.5630 c2        1 36F     -0.335000
     26 CBA         4.4770   -1.6140   -3.7300 c2        1 36F      0.361000
     27 CBB         4.0930    0.5980   -3.4470 c2        1 36F      0.061000
     28 CBC         3.1270    0.1350   -4.3200 c2        1 36F      0.007000
     29 CBD        -2.6000   -6.3420  -14.9090 c3        1 36F     -0.226000
     30 NBE        -1.1260   -6.4500   -5.5380 n4        1 36F     -0.185000
     31 NBF         3.3880   -1.2450   -4.5570 n         1 36F     -0.254000
     32 CBG        -1.8000   -6.2110  -17.3270 c3        1 36F     -0.041000
     33 CBH        -2.7040   -5.6800  -16.2500 c2        1 36F      0.092000
     34 HAA         1.8380   -0.3900   -7.8110 hc        1 36F      0.094667
     35 HAAA        2.6950    1.1780   -8.1060 hc        1 36F      0.094667
     36 HAAB        3.4400   -0.0660   -7.0190 hc        1 36F      0.094667
     37 HAD         0.8900    1.6410   -6.4980 ha        1 36F      0.129000
     38 HAE         4.7870    3.8870   -2.0340 ha        1 36F      0.233000
     39 HAF         1.4400    1.4380   -4.1500 ha        1 36F      0.144000
     40 HAG        -0.8460   -5.7930   -4.6290 hn        1 36F      0.278000
     41 HAH        -1.2320   -6.7470   -9.9990 hc        1 36F      0.087500
     42 HAHA       -2.4660   -4.2410  -11.3420 hc        1 36F      0.079000
     43 HAI        -0.7590   -4.7980  -11.5380 hc        1 36F      0.079000
     44 HAIA       -2.9280   -6.1600   -9.7910 hc        1 36F      0.087500
     45 HAJ        -1.5420   -6.9710  -12.4890 hc        1 36F      0.092000
     46 HAJA       -3.2650   -6.4850  -12.2280 hc        1 36F      0.092000
     47 HAK        -0.1620   -3.3010   -5.2060 hc        1 36F      0.203000
     48 HAKA        1.1340   -4.4980   -5.4260 hc        1 36F      0.203000
     49 HAL         1.0380   -2.1460   -3.3560 hc        1 36F      0.101500
     50 HALA        2.2860   -3.4540   -3.2740 hc        1 36F      0.101500
     51 HAM        -0.3530   -4.5790   -9.0890 hc        1 36F      0.082000
     52 HAMA       -2.0480   -3.9650   -8.9050 hc        1 36F      0.082000
     53 HAN        -2.9780   -4.5400  -13.7600 hc        1 36F      0.094500
     54 HANA       -1.2260   -4.9410  -13.9840 hc        1 36F      0.094500
     55 HAO        -0.8320   -7.4050   -5.3620 hn        1 36F      0.278000
     56 HAOA        0.1400   -4.8220   -2.6920 ha        1 36F      0.097000
     57 HAP         3.0050   -2.9750   -5.6230 h1        1 36F      0.114500
     58 HAPA        1.7420   -1.6510   -5.7550 h1        1 36F      0.114500
     59 HAQ        -0.0520   -7.5220  -17.0390 h1        1 36F      0.124500
     60 HAQA       -1.6120   -8.3770  -17.3230 h1        1 36F      0.124500
     61 HNAT        0.0600   -5.2290  -17.4570 hn        1 36F      0.209000
     62 HNAU       -3.5600   -4.2490  -17.4110 hn        1 36F      0.269500
     63 HBD        -4.0610   -4.2590  -15.7540 hn        1 36F      0.269500
     64 HBG        -3.5800   -6.8380  -14.6640 h1        1 36F      0.141000
     65 HBH        -2.4270   -6.4390  -18.2460 h1        1 36F      0.130000
     66 CAM        -1.4130   -4.8920   -8.8920 c3        1 36F     -0.058000
@<TRIPOS>BOND
     1    1   24 1   
     2    1   34 1   
     3    1   35 1   
     4    1   36 1   
     5    2   23 1   
     6    3   26 1   
     7    4    5 1   
     8    4   38 1   
     9    5   27 1   
    10    6   24 1   
    11    6   28 1   
    12    6   39 1   
    13    7   25 1   
    14    7   30 1   
    15    8    9 1   
    16    8   10 1   
    17    8   42 1   
    18    8   43 1   
    19    9   41 1   
    20    9   44 1   
    21    9   66 1   
    22   10   13 1   
    23   10   45 1   
    24   10   46 1   
    25   11   12 1   
    26   11   14 1   
    27   11   47 1   
    28   11   48 1   
    29   12   15 1   
    30   12   49 1   
    31   12   50 1   
    32   13   29 1   
    33   13   53 1   
    34   13   54 1   
    35   14   56 1   
    36   15   31 1   
    37   15   57 1   
    38   15   58 1   
    39   16   22 1   
    40   16   32 1   
    41   16   59 1   
    42   16   60 1   
    43   17   18 1   
    44   17   25 1   
    45   18   30 1   
    46   19   23 1   
    47   19   32 1   
    48   19   61 1   
    49   20   33 1   
    50   20   62 1   
    51   20   63 1   
    52   21   26 1   
    53   21   27 1   
    54   22   29 1   
    55   24   37 1   
    56   25   66 1   
    57   26   31 1   
    58   27   28 1   
    59   28   31 1   
    60   29   33 1   
    61   29   64 1   
    62   30   40 1   
    63   30   55 1   
    64   32   33 1   
    65   32   65 1   
    66   51   66 1   
    67   52   66 1   
@<TRIPOS>SUBSTRUCTURE
     1 36F         1 TEMP              0 ****  ****    0 ROOT
