@<TRIPOS>MOLECULE
36F
   66    67     1     0     0
SMALL
bcc


@<TRIPOS>ATOM
      1 CAA         3.6930   -5.7660   -4.0470 c3        1 36F     -0.184000
      2 OAB         2.4210   -7.9810  -10.0510 o         1 36F     -0.384000
      3 OAC         0.5980   -1.6370   -9.1250 o         1 36F     -0.243000
      4 CAD         3.0840   -6.0800   -6.4480 ca        1 36F     -0.103000
      5 CAE         2.5440   -5.6450   -7.6690 ca        1 36F     -0.091000
      6 CAF         2.6250   -3.9400   -5.3600 ca        1 36F     -0.090000
      7 CAG        -3.7460   -0.0310   -8.6480 c2        1 36F     -0.138000
      8 CAH        -1.6860   -3.9780  -10.5370 c3        1 36F     -0.162000
      9 CAI        -2.9240   -3.1300  -10.3380 c3        1 36F     -0.152000
     10 CAJ        -1.7130   -4.6990  -11.8670 c3        1 36F     -0.157000
     11 CAK        -0.7350    2.4510   -6.5370 c3        1 36F     -0.186000
     12 CAL        -0.0410    1.6050   -7.5740 c3        1 36F     -0.267000
     13 CAN        -0.3480   -5.2760  -12.1870 c3        1 36F     -0.145000
     14 CAO        -0.9000    1.1420   -8.6280 c1        1 36F     -0.098000
     15 CAP         1.2960   -1.1340   -6.2610 c1        1 36F     -0.087000
     16 CAQ        -0.0630   -8.8740  -13.3800 c3        1 36F     -0.298000
     17 NAR        -5.3230   -1.6510   -8.8610 n2        1 36F     -0.097000
     18 NAS        -5.9390   -0.5500   -8.7020 n2        1 36F     -0.029000
     19 NAT         2.1170   -8.2870  -12.2940 n         1 36F     -0.372000
     20 NAU         1.8770   -5.9460  -14.3370 n2        1 36F     -0.204000
     21 OAV         1.4690   -3.6830   -8.7840 os        1 36F     -0.153000
     22 SAW        -1.3090   -7.7160  -12.9000 ss        1 36F      0.086000
     23 CAX         1.6420   -8.0890  -11.0140 c2        1 36F      0.249000
     24 CAY         3.1270   -5.2560   -5.3190 ca        1 36F     -0.067000
     25 CAZ        -3.9250   -1.4180   -8.8410 c2        1 36F     -0.194000
     26 CBA         1.1300   -2.3990   -8.3340 c2        1 36F      0.396000
     27 CBB         2.0570   -4.3550   -7.6940 ca        1 36F      0.018000
     28 CBC         2.0880   -3.4930   -6.5560 ca        1 36F     -0.105000
     29 CBD        -0.4030   -6.2460  -13.3480 c3        1 36F     -0.239000
     30 NBE        -5.0520    0.4560   -8.5680 na        1 36F     -0.212000
     31 NBF         1.5030   -2.2360   -6.9360 n         1 36F     -0.122000
     32 CBG         1.2830   -8.1510  -13.4610 c3        1 36F      0.062000
     33 CBH         0.9800   -6.6670  -13.7790 c2        1 36F     -0.047000
     34 HAA         2.8660   -6.0870   -3.3640 hc        1 36F      0.091000
     35 HAAA        4.3600   -6.6440   -4.2260 hc        1 36F      0.091000
     36 HAAB        4.2860   -4.9720   -3.5290 hc        1 36F      0.091000
     37 HAD         3.4840   -7.1050   -6.3890 ha        1 36F      0.154000
     38 HAE         2.5140   -6.3060   -8.5520 ha        1 36F      0.196000
     39 HAF         2.6630   -3.3000   -4.4670 ha        1 36F      0.150000
     40 HAG        -2.8290    0.5910   -8.5740 h4        1 36F      0.258000
     41 HAH        -3.8440   -3.7650  -10.4140 hc        1 36F      0.089500
     42 HAHA       -1.6090   -4.7310   -9.7080 hc        1 36F      0.083000
     43 HAI        -0.7710   -3.3270  -10.4730 hc        1 36F      0.083000
     44 HAIA       -2.9840   -2.3570  -11.1480 hc        1 36F      0.089500
     45 HAJ        -2.4760   -5.5230  -11.8340 hc        1 36F      0.088000
     46 HAJA       -2.0220   -3.9920  -12.6810 hc        1 36F      0.088000
     47 HAK        -1.0180    3.4420   -6.9670 hc        1 36F      0.072667
     48 HAKA       -1.6640    1.9470   -6.1770 hc        1 36F      0.072667
     49 HAL        -0.0600    2.6250   -5.6650 hc        1 36F      0.072667
     50 HALA        0.3210    0.6220   -7.0900 hc        1 36F      0.145000
     51 HAM        -2.9970   -3.2190   -8.1750 hc        1 36F      0.087500
     52 HAMA       -1.8780   -1.9560   -8.8450 hc        1 36F      0.087500
     53 HAN         0.3570   -4.4370  -12.4340 hc        1 36F      0.092500
     54 HANA        0.0630   -5.7970  -11.2810 hc        1 36F      0.092500
     55 HAO        -5.3400    1.3940   -8.4380 hn        1 36F      0.268000
     56 HAOA       -0.4040    0.7950   -9.5470 ha        1 36F      0.057000
     57 HAP         0.8920    2.1260   -7.9280 hc        1 36F      0.145000
     58 HAPA        1.6240   -1.1450   -5.2000 ha        1 36F      0.071000
     59 HAQ        -0.3070   -9.2990  -14.3840 h1        1 36F      0.128000
     60 HAQA       -0.0570   -9.7170  -12.6480 h1        1 36F      0.128000
     61 HNAT        3.0970   -8.2020  -12.4560 hn        1 36F      0.235000
     62 HNAU        0.5290   -8.0720  -10.9140 h5        1 36F      0.151000
     63 HBD         1.6310   -4.9930  -14.5080 hn        1 36F      0.156000
     64 HBG        -0.9440   -5.7660  -14.2070 h1        1 36F      0.136000
     65 HBH         1.8670   -8.5920  -14.3270 h1        1 36F      0.134000
     66 CAM        -2.8820   -2.4470   -8.9830 c3        1 36F     -0.071000
@<TRIPOS>BOND
     1    1   24 1   
     2    1   34 1   
     3    1   35 1   
     4    1   36 1   
     5    2   23 1   
     6    3   26 1   
     7    4    5 1   
     8    4   24 1   
     9    4   37 1   
    10    5   27 1   
    11    5   38 1   
    12    6   24 1   
    13    6   28 1   
    14    6   39 1   
    15    7   25 1   
    16    7   30 1   
    17    7   40 1   
    18    8    9 1   
    19    8   10 1   
    20    8   42 1   
    21    8   43 1   
    22    9   41 1   
    23    9   44 1   
    24    9   66 1   
    25   10   13 1   
    26   10   45 1   
    27   10   46 1   
    28   11   12 1   
    29   11   47 1   
    30   11   48 1   
    31   11   49 1   
    32   12   14 1   
    33   12   50 1   
    34   12   57 1   
    35   13   29 1   
    36   13   53 1   
    37   13   54 1   
    38   14   56 1   
    39   15   31 1   
    40   15   58 1   
    41   16   22 1   
    42   16   32 1   
    43   16   59 1   
    44   16   60 1   
    45   17   18 1   
    46   17   25 1   
    47   18   30 1   
    48   19   23 1   
    49   19   32 1   
    50   19   61 1   
    51   20   33 1   
    52   20   63 1   
    53   21   26 1   
    54   21   27 1   
    55   22   29 1   
    56   23   62 1   
    57   25   66 1   
    58   26   31 1   
    59   27   28 1   
    60   28   31 1   
    61   29   33 1   
    62   29   64 1   
    63   30   55 1   
    64   32   33 1   
    65   32   65 1   
    66   51   66 1   
    67   52   66 1   
@<TRIPOS>SUBSTRUCTURE
     1 36F         1 TEMP              0 ****  ****    0 ROOT
