@<TRIPOS>MOLECULE
36F
   66    68     1     0     0
SMALL
bcc


@<TRIPOS>ATOM
      1 CAA        -1.2960    0.3280   -3.5590 c3        1 36F     -0.187000
      2 OAB        -0.2390   -7.1340  -18.0240 o         1 36F     -0.354000
      3 OAC         5.7220    0.3740   -5.3150 o         1 36F     -0.238000
      4 CAD         0.6050    1.9050   -3.1810 ca        1 36F     -0.106000
      5 CAE         1.9490    2.2930   -3.3080 ca        1 36F     -0.100000
      6 CAF         0.9830   -0.1720   -4.4180 ca        1 36F     -0.065000
      7 CAG         1.8350   -3.7040   -8.1440 c1        1 36F     -0.141000
      8 CAH        -0.9740   -4.3080  -12.1000 c3        1 36F     -0.157000
      9 CAI        -0.7280   -4.3250  -10.6070 c3        1 36F     -0.157000
     10 CAJ        -2.0570   -5.2930  -12.4850 c3        1 36F     -0.161000
     11 CAK         3.2730   -5.0930   -5.8590 c3        1 36F     -0.172000
     12 CAL         3.4780   -6.3350   -5.0320 c3        1 36F     -0.213000
     13 CAN        -2.3200   -5.2570  -13.9770 c3        1 36F     -0.145000
     14 CAO         1.7910   -4.7340   -5.9020 c3        1 36F     -0.065000
     15 CAP         3.4330   -1.5760   -5.8340 c1        1 36F     -0.124000
     16 CAQ        -3.3710   -8.6160  -15.5800 c3        1 36F     -0.298000
     17 NAR        -0.3360   -2.9580   -7.7820 n2        1 36F      0.004000
     18 NAS         0.1120   -3.0380   -6.6440 n2        1 36F     -0.106000
     19 NAT        -2.4600   -7.4020  -17.5680 ns        1 36F     -0.377000
     20 NAU        -4.1960   -5.1500  -16.4550 n2        1 36F     -0.206000
     21 OAV         4.1510    1.5970   -4.2490 os        1 36F     -0.143000
     22 SAW        -2.7860   -7.9240  -14.0650 ss        1 36F      0.087000
     23 CAX        -1.1270   -7.3990  -17.1990 c2        1 36F      0.245000
     24 CAY         0.1280    0.7070   -3.7190 ca        1 36F     -0.064000
     25 CAZ         0.6520   -3.3540   -8.7820 c2        1 36F     -0.337000
     26 CBA         4.5540    0.4680   -4.9740 c2        1 36F      0.326000
     27 CBB         2.7760    1.4290   -3.9920 ca        1 36F      0.017000
     28 CBC         2.3110    0.1990   -4.5520 ca        1 36F     -0.043000
     29 CBD        -3.3720   -6.2700  -14.3760 c3        1 36F     -0.238000
     30 NBE         1.5280   -3.5000   -6.6920 nx        1 36F     -0.102000
     31 NBF         3.4230   -0.4430   -5.1920 n         1 36F     -0.100000
     32 CBG        -3.5300   -7.4960  -16.6110 c3        1 36F      0.066000
     33 CBH        -3.7430   -6.1730  -15.8340 c2        1 36F     -0.047000
     34 HAA        -1.3890   -0.5070   -2.8190 hc        1 36F      0.095000
     35 HAAA       -1.9080    1.1900   -3.1970 hc        1 36F      0.095000
     36 HAAB       -1.7200   -0.0230   -4.5340 hc        1 36F      0.095000
     37 HAD        -0.0870    2.5710   -2.6430 ha        1 36F      0.149000
     38 HAE         2.3200    3.2360   -2.8850 ha        1 36F      0.167000
     39 HAF         0.5970   -1.1120   -4.8400 ha        1 36F      0.177000
     40 HAG         2.1490   -2.7120   -6.3130 hn        1 36F      0.302000
     41 HAH        -0.4200   -5.3550  -10.2880 hc        1 36F      0.084000
     42 HAHA       -1.2730   -3.2750  -12.4210 hc        1 36F      0.080000
     43 HAI        -0.0250   -4.5610  -12.6420 hc        1 36F      0.080000
     44 HAIA       -1.6790   -4.0790  -10.0650 hc        1 36F      0.084000
     45 HAJ        -3.0010   -5.0510  -11.9290 hc        1 36F      0.088500
     46 HAJA       -1.7490   -6.3310  -12.1850 hc        1 36F      0.088500
     47 HAK         3.8600   -4.2410   -5.4230 hc        1 36F      0.102500
     48 HAKA        3.6470   -5.2550   -6.9060 hc        1 36F      0.102500
     49 HAL         3.1220   -6.1820   -3.9850 hc        1 36F      0.078333
     50 HALA        2.9210   -7.1990   -5.4700 hc        1 36F      0.078333
     51 HAM         1.2980   -3.5700  -10.7810 hc        1 36F      0.088000
     52 HAMA        0.0310   -2.2980  -10.5340 hc        1 36F      0.088000
     53 HAN        -1.3660   -5.4610  -14.5340 hc        1 36F      0.093000
     54 HANA       -2.6630   -4.2270  -14.2670 hc        1 36F      0.093000
     55 HAO         1.2160   -5.5830   -6.3640 hx        1 36F      0.107500
     56 HAOA        1.4110   -4.5720   -4.8540 hx        1 36F      0.107500
     57 HAP         4.5640   -6.5960   -5.0010 hc        1 36F      0.078333
     58 HAPA        4.4040   -1.8980   -6.2650 ha        1 36F      0.113000
     59 HAQ        -4.3620   -9.1040  -15.4180 h1        1 36F      0.127500
     60 HAQA       -2.6540   -9.4060  -15.9090 h1        1 36F      0.127500
     61 HNAT       -2.7070   -7.0180  -18.4540 hn        1 36F      0.235000
     62 HNAU       -0.9250   -7.6860  -16.1400 h5        1 36F      0.143000
     63 HBD        -4.3080   -4.3190  -15.9100 hn        1 36F      0.153000
     64 HBG        -4.2920   -6.1090  -13.7510 h1        1 36F      0.131000
     65 HBH        -4.4750   -7.7020  -17.2050 h1        1 36F      0.129000
     66 CAM         0.3520   -3.3300  -10.2250 c3        1 36F     -0.061000
@<TRIPOS>BOND
     1    1   24 1   
     2    1   34 1   
     3    1   35 1   
     4    1   36 1   
     5    2   23 1   
     6    3   26 1   
     7    4    5 1   
     8    4   24 1   
     9    4   37 1   
    10    5   27 1   
    11    5   38 1   
    12    6   24 1   
    13    6   28 1   
    14    6   39 1   
    15    7   25 1   
    16    7   30 1   
    17    8    9 1   
    18    8   10 1   
    19    8   42 1   
    20    8   43 1   
    21    9   41 1   
    22    9   44 1   
    23    9   66 1   
    24   10   13 1   
    25   10   45 1   
    26   10   46 1   
    27   11   12 1   
    28   11   14 1   
    29   11   47 1   
    30   11   48 1   
    31   12   49 1   
    32   12   50 1   
    33   12   57 1   
    34   13   29 1   
    35   13   53 1   
    36   13   54 1   
    37   14   30 1   
    38   14   55 1   
    39   14   56 1   
    40   15   31 1   
    41   15   58 1   
    42   16   22 1   
    43   16   32 1   
    44   16   59 1   
    45   16   60 1   
    46   17   18 1   
    47   17   25 1   
    48   18   30 1   
    49   19   23 1   
    50   19   32 1   
    51   19   61 1   
    52   20   33 1   
    53   20   63 1   
    54   21   26 1   
    55   21   27 1   
    56   22   29 1   
    57   23   62 1   
    58   25   66 1   
    59   26   31 1   
    60   27   28 1   
    61   28   31 1   
    62   29   33 1   
    63   29   64 1   
    64   30   40 1   
    65   32   33 1   
    66   32   65 1   
    67   51   66 1   
    68   52   66 1   
@<TRIPOS>SUBSTRUCTURE
     1 36F         1 TEMP              0 ****  ****    0 ROOT
