@<TRIPOS>MOLECULE
36F
   66    66     1     0     0
SMALL
bcc


@<TRIPOS>ATOM
      1 CAA         5.5290   -3.0490   -3.8540 c3        1 36F     -0.090000
      2 OAB        -7.7730    0.5870    0.2330 o         1 36F     -0.614500
      3 OAC         5.3200    0.8080    2.4620 o         1 36F     -0.494000
      4 CAD         5.5950   -0.7130   -3.2270 c1        1 36F     -0.053000
      5 CAE         5.5960    0.3840   -2.3550 c1        1 36F     -0.053000
      6 CAF         5.3540   -2.2200   -1.3300 c1        1 36F     -0.059500
      7 CAG         0.0540   -1.0290    2.9610 c1        1 36F     -0.081900
      8 CAH        -2.5910    2.3400    0.8910 c3        1 36F     -0.078400
      9 CAI        -1.3110    1.7060    1.4820 c3        1 36F     -0.076400
     10 CAJ        -2.7500    1.9080   -0.5450 c3        1 36F     -0.084400
     11 CAK         3.3860   -2.1390    3.5750 c3        1 36F     -0.100400
     12 CAL         3.8060   -2.5250    2.1340 c3        1 36F     -0.114400
     13 CAM        -1.6190    1.1400    2.9070 c3        1 36F      0.006800
     14 CAN        -4.2580    1.9470   -0.9360 c3        1 36F     -0.075400
     15 CAO         1.8910   -2.4870    3.7880 c3        1 36F      0.059300
     16 CAP         5.2400   -2.1210    1.9040 c3        1 36F      0.101000
     17 CAQ        -6.0540    3.0070   -3.4870 c3        1 36F     -0.022300
     18 NAR         0.2050    0.6700    4.3660 ne        1 36F     -0.233600
     19 NAS         1.2010   -0.2150    4.6500 n2        1 36F     -0.174400
     20 NAT        -7.4180    2.0030   -1.6160 n         1 36F     -0.536900
     21 NAU        -6.2680    0.0310   -1.5110 n         1 36F     -0.511900
     22 OAV         5.4200    1.0980    0.1430 os        1 36F     -0.274700
     23 SAW        -4.4390    2.6310   -3.3260 ss        1 36F     -0.284200
     24 CAX        -7.1530    0.8900   -0.7800 c         1 36F      0.751500
     25 CAY         5.4740   -2.0190   -2.7140 c1        1 36F     -0.031100
     26 CAZ        -0.5060    0.1800    3.3290 ce        1 36F     -0.085700
     27 CBA         5.3680    0.3520    1.3280 c         1 36F      0.717100
     28 CBB         5.4750    0.1800   -0.9590 c1        1 36F      0.028600
     29 CBC         5.3560   -1.1080   -0.4500 c1        1 36F     -0.003800
     30 CBD        -4.4240    1.4760   -2.4380 c3        1 36F     -0.004600
     31 NBE         1.0990   -1.2650    3.7730 nh        1 36F      0.030700
     32 NBF         5.2870   -1.0120    0.9810 n         1 36F     -0.354600
     33 CBG        -6.8830    1.7100   -2.8380 c3        1 36F      0.067700
     34 CBH        -5.9280    0.6980   -2.6480 c3        1 36F      0.057700
     35 HAA         4.8840   -2.7950   -4.5600 hc        1 36F      0.048033
     36 HAAA        5.2970   -3.9490   -3.4990 hc        1 36F      0.048033
     37 HAAB        6.4210   -3.0700   -4.2250 hc        1 36F      0.048033
     38 HAD         5.7690   -0.5770   -4.1860 ha        1 36F      0.093000
     39 HAE         5.6820    1.3020   -2.7150 ha        1 36F      0.093000
     40 HAF         5.3120   -3.1410   -0.9640 ha        1 36F      0.086500
     41 HAG        -0.3080   -1.6540    2.2880 DU        1 36F      0.188000
     42 HAH        -3.3700    2.0470    1.4080 hc        1 36F      0.040200
     43 HAHA       -2.5210    3.3140    0.9330 hc        1 36F      0.040200
     44 HAI        -0.5940    2.3990    1.5460 hc        1 36F      0.052200
     45 HAIA       -1.0100    0.9780    0.9000 hc        1 36F      0.052200
     46 HAJ        -2.4060    0.9880   -0.6540 hc        1 36F      0.053700
     47 HAJA       -2.2490    2.5130   -1.1250 hc        1 36F      0.053700
     48 HAK         3.5210   -1.1610    3.7100 hc        1 36F      0.072700
     49 HAKA        3.9390   -2.6430    4.2280 hc        1 36F      0.072700
     50 HAL         3.2350   -2.0670    1.4970 hc        1 36F      0.059200
     51 HALA        3.7150   -3.5060    2.0150 hc        1 36F      0.059200
     52 HAM        -1.6730    1.8830    3.5490 hc        1 36F      0.052200
     53 HAMA       -2.4810    0.6580    2.8900 hc        1 36F      0.052200
     54 HAN        -4.6090    2.8900   -0.8380 hc        1 36F      0.049200
     55 HANA       -4.7630    1.3490   -0.3490 hc        1 36F      0.049200
     56 HAO         1.7810   -2.9350    4.6460 h1        1 36F      0.062200
     57 HAOA        1.5910   -3.0760    3.0760 h1        1 36F      0.062200
     58 HAP         5.6460   -1.8520    2.7600 h1        1 36F      0.070700
     59 HAPA        5.7450   -2.8910    1.5250 h1        1 36F      0.070700
     60 HAQ        -6.2810    3.1150   -4.4220 h1        1 36F      0.087200
     61 HAQA       -6.2590    3.8130   -2.9970 h1        1 36F      0.087200
     62 HNAT       -7.9850    2.6760   -1.4350 hn        1 36F      0.320500
     63 HNAU       -6.1240   -0.8400   -1.3480 hn        1 36F      0.311500
     64 HBD        -3.7010    0.8760   -2.6830 h1        1 36F      0.089700
     65 HBG        -7.5820    1.4080   -3.4550 h1        1 36F      0.063700
     66 HBH        -5.9040    0.1000   -3.4080 h1        1 36F      0.084700
@<TRIPOS>BOND
     1    1   25 1   
     2    1   35 1   
     3    1   36 1   
     4    1   37 1   
     5    2   24 2   
     6    3   27 2   
     7    4    5 3   
     8    4   38 1   
     9    5   39 1   
    10    6   25 3   
    11    6   40 1   
    12    7   26 2   
    13    7   31 2   
    14    8    9 1   
    15    8   10 1   
    16    8   42 1   
    17    8   43 1   
    18    9   13 1   
    19    9   44 1   
    20    9   45 1   
    21   10   14 1   
    22   10   46 1   
    23   10   47 1   
    24   11   12 1   
    25   11   15 1   
    26   11   48 1   
    27   11   49 1   
    28   12   16 1   
    29   12   50 1   
    30   12   51 1   
    31   13   26 1   
    32   13   52 1   
    33   13   53 1   
    34   14   30 1   
    35   14   54 1   
    36   14   55 1   
    37   15   31 1   
    38   15   56 1   
    39   15   57 1   
    40   16   32 1   
    41   16   58 1   
    42   16   59 1   
    43   17   23 1   
    44   17   33 1   
    45   17   60 1   
    46   17   61 1   
    47   18   19 2   
    48   18   26 1   
    49   19   31 1   
    50   20   24 1   
    51   20   33 1   
    52   20   62 1   
    53   21   24 1   
    54   21   34 1   
    55   21   63 1   
    56   22   27 1   
    57   22   28 1   
    58   23   30 1   
    59   27   32 1   
    60   28   29 3   
    61   29   32 1   
    62   30   34 1   
    63   30   64 1   
    64   33   34 1   
    65   33   65 1   
    66   34   66 1   
@<TRIPOS>SUBSTRUCTURE
     1 36F         1 TEMP              0 ****  ****    0 ROOT
