@<TRIPOS>MOLECULE
36G
   39    41     1     0     0
SMALL
bcc


@<TRIPOS>ATOM
      1 CAF        -1.0830   -1.7680   -0.1960 c3        1 36G      0.100000
      2 CAE        -2.1980   -2.4210   -1.0080 c3        1 36G     -0.092400
      3 CAC        -3.6860   -0.6540   -0.0880 ca        1 36G     -0.128300
      4 CAB        -4.9720   -0.1280    0.0620 ca        1 36G     -0.105000
      5 CAA        -5.1700    1.2090    0.3860 ca        1 36G     -0.159000
      6 CAI        -4.0650    2.0390    0.5670 ca        1 36G     -0.105000
      7 CAJ        -2.7750    1.5430    0.4250 ca        1 36G     -0.157000
      8 CAK        -2.5560    0.1860    0.0890 ca        1 36G      0.100600
      9 OAT        -0.1810    1.6190   -0.6890 o         1 36G     -0.598100
     10 NAP         1.0720    0.0680    0.4970 n         1 36G     -0.441100
     11 CA0        -3.5450   -2.1010   -0.4040 c3        1 36G     -0.029100
     12 CAQ         2.3430    0.5540    0.1290 ca        1 36G      0.032600
     13 CAU         2.5720    1.9130   -0.1590 ca        1 36G     -0.108000
     14 CAV         3.8530    2.3720   -0.4570 ca        1 36G     -0.140000
     15 CAW         4.9360    1.4990   -0.4700 ca        1 36G     -0.116000
     16 CAS         4.7450    0.1470   -0.1890 ca        1 36G     -0.179000
     17 CAR         3.4660   -0.3290    0.1010 ca        1 36G      0.078100
     18 NAH        -1.2540   -0.3420   -0.0210 n         1 36G     -0.402000
     19 OAG         3.1940   -1.6660    0.3540 os        1 36G     -0.351900
     20 CAH         4.3160   -2.4830    0.6670 c3        1 36G      0.119700
     21 HAF1       -1.0420   -2.2520    0.8230 h1        1 36G      0.046200
     22 HAF2       -0.1070   -1.9740   -0.7230 h1        1 36G      0.046200
     23 HAE1       -2.1590   -2.0630   -2.0700 hc        1 36G      0.056200
     24 HAE2       -2.0290   -3.5290   -1.0140 hc        1 36G      0.056200
     25 HA01       -4.3570   -2.4190   -1.1110 hc        1 36G      0.051200
     26 HA02       -3.6830   -2.6910    0.5440 hc        1 36G      0.051200
     27 HAB        -5.8390   -0.7910   -0.0820 ha        1 36G      0.129000
     28 HAA        -6.1880    1.6080    0.4980 ha        1 36G      0.131000
     29 HAI        -4.2090    3.0990    0.8240 ha        1 36G      0.132000
     30 HAJ        -1.9230    2.2280    0.5640 ha        1 36G      0.158000
     31 HAP         1.0840   -0.8570    0.8770 hn        1 36G      0.322500
     32 HAU         1.7270    2.6230   -0.1600 ha        1 36G      0.173000
     33 HAV         4.0020    3.4390   -0.6810 ha        1 36G      0.138000
     34 HAW         5.9450    1.8690   -0.7030 ha        1 36G      0.135000
     35 HAS         5.6040   -0.5380   -0.2060 ha        1 36G      0.138000
     36 HAH1        3.8520   -3.4480    0.9980 h1        1 36G      0.045367
     37 HAH2        4.9430   -2.6430   -0.2440 h1        1 36G      0.045367
     38 HAH3        4.9230   -2.0340    1.4890 h1        1 36G      0.045367
     39 CAO        -0.1140    0.5060   -0.1280 c         1 36G      0.781100
@<TRIPOS>BOND
     1    1    2 1   
     2    1   18 1   
     3    1   21 1   
     4    1   22 1   
     5    2   11 1   
     6    2   23 1   
     7    2   24 1   
     8    3    4 ar  
     9    3    8 ar  
    10    3   11 1   
    11    4    5 ar  
    12    4   27 1   
    13    5    6 ar  
    14    5   28 1   
    15    6    7 ar  
    16    6   29 1   
    17    7    8 ar  
    18    7   30 1   
    19    8   18 1   
    20    9   39 2   
    21   10   12 1   
    22   10   31 1   
    23   10   39 1   
    24   11   25 1   
    25   11   26 1   
    26   12   13 ar  
    27   12   17 ar  
    28   13   14 ar  
    29   13   32 1   
    30   14   15 ar  
    31   14   33 1   
    32   15   16 ar  
    33   15   34 1   
    34   16   17 ar  
    35   16   35 1   
    36   17   19 1   
    37   18   39 1   
    38   19   20 1   
    39   20   36 1   
    40   20   37 1   
    41   20   38 1   
@<TRIPOS>SUBSTRUCTURE
     1 36G         1 TEMP              0 ****  ****    0 ROOT
