@<TRIPOS>MOLECULE
36G
   39    52     1     0     0
SMALL
bcc


@<TRIPOS>ATOM
      1 CAF         0.0000    0.0000    0.0000 DU        1 36G     -0.254000
      2 CAE         1.5350    0.0000    0.0000 DU        1 36G     -0.285000
      3 CAC         1.3690   -1.1030    2.2300 c3        1 36G      0.023000
      4 CAB         1.9680   -1.5490    3.3950 c3        1 36G     -0.402000
      5 CAA         1.3830   -2.5540    4.1410 c3        1 36G     -0.100000
      6 CAI         0.1930   -3.1220    3.7260 c3        1 36G     -0.333000
      7 CAJ        -0.4110   -2.6840    2.5640 c2        1 36G     -0.330000
      8 CAK         0.1770   -1.6740    1.8130 c2        1 36G     -0.241000
      9 OAT        -1.8480   -2.9730    0.6480 oh        1 36G     -0.285000
     10 NAP        -1.9910   -1.5920   -1.0870 n7        1 36G     -0.309000
     11 CA0         2.0290    0.0000    1.4460 c3        1 36G     -0.575000
     12 CAQ        -2.9600   -2.3950   -1.7020 c3        1 36G     -0.087000
     13 CAU        -3.7750   -3.2140   -0.9340 c3        1 36G     -0.210000
     14 CAV        -4.7310   -4.0050   -1.5440 c3        1 36G     -0.167000
     15 CAW        -4.8780   -3.9830   -2.9170 c3        1 36G     -0.223000
     16 CAS        -4.0700   -3.1700   -3.6900 c2        1 36G     -0.546000
     17 CAR        -3.1130   -2.3690   -3.0870 c2        1 36G      0.203000
     18 NAH        -0.4480   -1.2490    0.6320 n3        1 36G      0.372000
     19 OAG        -2.3210   -1.5640   -3.8440 os        1 36G     -0.131000
     20 CAH        -2.5340   -1.5890   -5.2570 c3        1 36G     -0.295000
     21 HAF1       -0.5170   -0.9160    0.2570 ha        1 36G      0.161500
     22 HAF2       -0.3660    0.8480    0.5660 ha        1 36G      0.161500
     23 HAE1        0.5810    0.0230   -0.5130 DU        1 36G      0.223000
     24 HAE2        1.8860   -0.9000   -0.4910 ha        1 36G      0.127000
     25 HA01        1.9580    0.4570    0.4660 DU        1 36G      0.248000
     26 HA02        1.7920    0.9530    1.9030 hc        1 36G      0.115000
     27 HAB         2.4340   -0.9770    2.6020 DU        1 36G      0.464000
     28 HAA         2.1530   -1.8210    3.9310 DU        1 36G      0.273000
     29 HAI         1.0350   -3.0090    4.3980 DU        1 36G      0.220000
     30 HAJ        -0.3390   -3.3060    3.4480 DU        1 36G      0.256000
     31 HAP        -1.8170   -2.0060   -0.1920 DU        1 36G      0.138000
     32 HAU        -3.1930   -2.3020   -0.9820 DU        1 36G      0.312000
     33 HAV        -4.1900   -3.6150   -0.6900 DU        1 36G      0.226000
     34 HAW        -5.1260   -4.3190   -1.9180 DU        1 36G      0.210000
     35 HAS        -4.8580   -3.8970   -3.5400 DU        1 36G      0.241000
     36 HAH1       -3.3040   -2.3170   -5.0310 h1        1 36G      0.163667
     37 HAH2       -2.0770   -0.7040   -5.6820 h1        1 36G      0.163667
     38 HAH3       -3.6020   -1.5700   -5.4350 h1        1 36G      0.163667
     39 CAO        -1.4440   -1.9750    0.0850 c2        1 36G      0.310000
@<TRIPOS>BOND
     1    1    2 1   
     2    1   18 1   
     3    1   21 1   
     4    1   22 1   
     5    1   23 1   
     6    2   11 1   
     7    2   23 1   
     8    2   24 1   
     9    2   25 1   
    10    3    4 1   
    11    3    8 1   
    12    3   11 1   
    13    3   27 1   
    14    4    5 1   
    15    4   27 1   
    16    4   28 1   
    17    5    6 1   
    18    5   28 1   
    19    5   29 1   
    20    6    7 1   
    21    6   29 1   
    22    6   30 1   
    23    7    8 1   
    24    7   30 1   
    25    8   18 1   
    26    9   31 1   
    27    9   39 1   
    28   10   12 1   
    29   10   31 1   
    30   10   39 1   
    31   11   25 1   
    32   11   26 1   
    33   12   13 1   
    34   12   17 1   
    35   12   32 1   
    36   13   14 1   
    37   13   32 1   
    38   13   33 1   
    39   14   15 1   
    40   14   33 1   
    41   14   34 1   
    42   15   16 1   
    43   15   34 1   
    44   15   35 1   
    45   16   17 1   
    46   16   35 1   
    47   17   19 1   
    48   18   39 1   
    49   19   20 1   
    50   20   36 1   
    51   20   37 1   
    52   20   38 1   
@<TRIPOS>SUBSTRUCTURE
     1 36G         1 TEMP              0 ****  ****    0 ROOT
