@<TRIPOS>MOLECULE
36G
   39    35     1     0     0
SMALL
bcc


@<TRIPOS>ATOM
      1 CAF         1.6510   -2.2060   -1.0320 c3        1 36G     -0.040000
      2 CAE         3.0800   -2.2410   -1.0060 c3        1 36G     -0.188000
      3 CAC         2.9720   -1.3740    1.3380 c1        1 36G     -0.092000
      4 CAB         3.5450   -1.1250    2.5790 c1        1 36G     -0.131833
      5 CAA         2.8830   -0.3130    3.5070 c1        1 36G     -0.131833
      6 CAI         1.6100    0.2670    3.1800 c1        1 36G     -0.131833
      7 CAJ         1.0240    0.0200    1.9260 c1        1 36G     -0.131833
      8 CAK         1.6800   -0.7890    1.0000 c1        1 36G      0.033000
      9 CAO        -0.3350   -0.8600   -0.6060 c1        1 36G      0.388000
     10 OAT        -0.9410   -1.4580   -1.4440 o         1 36G     -0.373000
     11 NAP        -0.9410    0.2950    0.0480 n2        1 36G     -0.303000
     12 CA0         3.6830   -2.2130    0.2540 c3        1 36G     -0.122000
     13 CAQ        -2.2640    0.7190   -0.3150 c2        1 36G      0.066000
     14 CAU        -3.3200   -0.1650   -0.2340 c2        1 36G     -0.135000
     15 CAV        -4.6130    0.2680   -0.5080 c1        1 36G     -0.118000
     16 CAW        -4.8370    1.5750   -0.8590 c1        1 36G     -0.131833
     17 CAS        -3.7680    2.4670   -0.9410 c1        1 36G     -0.131833
     18 CAR        -2.4910    2.0380   -0.6690 c1        1 36G     -0.005000
     19 NAH         1.0420   -1.2000   -0.3300 n3        1 36G     -0.248000
     20 OAG        -1.5570    3.0730   -1.0330 os        1 36G     -0.236000
     21 CAH        -1.5590    3.3900   -2.4290 c3        1 36G     -0.074000
     22 HAF1        1.3730   -2.1380   -1.9500 h1        1 36G      0.116500
     23 HAF2        1.3290   -3.0500   -0.6820 h1        1 36G      0.116500
     24 HAE1        3.4020   -1.4640   -1.5030 hc        1 36G      0.094000
     25 HAE2        3.3600   -3.0770   -1.4480 hc        1 36G      0.094000
     26 HA01        3.7490   -3.1190    0.5720 hc        1 36G      0.094000
     27 HA02        4.5400   -1.8800    0.1550 hc        1 36G      0.094000
     28 HAB         4.4480   -1.5360    2.8160 ha        1 36G      0.138500
     29 HAA         3.2730   -0.1460    4.3460 ha        1 36G      0.138500
     30 HAI         1.1740    0.8060    3.7990 ha        1 36G      0.138500
     31 HAJ         0.1500    0.4160    1.7030 ha        1 36G      0.138500
     32 HAP        -0.4600    0.7720    0.6850 hn        1 36G      0.244000
     33 HAU        -3.1650   -1.0650    0.0090 ha        1 36G      0.176000
     34 HAV        -5.3680   -0.3640   -0.4510 ha        1 36G      0.137000
     35 HAW        -5.7750    1.8890   -1.0590 ha        1 36G      0.138500
     36 HAS        -3.9240    3.3850   -1.1880 ha        1 36G      0.138500
     37 HAH1       -0.7480    3.9250   -2.6520 h1        1 36G      0.080000
     38 HAH2       -2.3440    3.8970   -2.6400 h1        1 36G      0.080000
     39 HAH3       -1.5560    2.5830   -2.9370 h1        1 36G      0.080000
@<TRIPOS>BOND
     1    1    2 1   
     2    1   19 1   
     3    1   22 1   
     4    1   23 1   
     5    2   12 1   
     6    2   24 1   
     7    2   25 1   
     8    3    8 1   
     9    3   12 1   
    10    4    5 1   
    11    4   28 1   
    12    5   29 1   
    13    6    7 1   
    14    6   30 1   
    15    7   31 1   
    16    8   19 1   
    17    9   10 1   
    18    9   19 1   
    19   11   13 1   
    20   11   32 1   
    21   12   26 1   
    22   12   27 1   
    23   13   14 1   
    24   13   18 1   
    25   14   15 1   
    26   14   33 1   
    27   15   34 1   
    28   16   17 1   
    29   16   35 1   
    30   17   36 1   
    31   18   20 1   
    32   20   21 1   
    33   21   37 1   
    34   21   38 1   
    35   21   39 1   
@<TRIPOS>SUBSTRUCTURE
     1 36G         1 TEMP              0 ****  ****    0 ROOT
