@<TRIPOS>MOLECULE
36G
   39    40     1     0     0
SMALL
bcc


@<TRIPOS>ATOM
      1 CAF         1.6820    2.2640    0.6330 c3        1 36G     -0.213000
      2 CAE         1.1400    0.8560    0.5960 c3        1 36G     -0.148000
      3 CAC         1.1350   -1.1260    2.1390 c2        1 36G     -0.146000
      4 CAB         1.7690   -1.9000    3.2570 c3        1 36G     -0.119000
      5 CAA         0.8480   -2.7680    4.0340 c2        1 36G     -0.083000
      6 CAI        -0.4520   -2.9470    3.6950 c2        1 36G     -0.204000
      7 CAJ        -0.9820   -2.1580    2.6450 c1        1 36G      0.047000
      8 CAK        -0.0840   -1.7650    1.5780 c2        1 36G      0.072000
      9 OAT        -1.9860   -3.4590    0.6330 o         1 36G     -0.384000
     10 NAP        -1.8790   -2.4020   -1.4330 n         1 36G     -0.274000
     11 CA0         1.6660    0.0270    1.7020 c2        1 36G     -0.062000
     12 CAQ        -2.9450   -3.0470   -2.0400 c2        1 36G      0.103000
     13 CAU        -3.7420   -4.0580   -1.2730 c3        1 36G     -0.146000
     14 CAV        -4.8600   -4.6760   -2.0100 c2        1 36G     -0.109000
     15 CAW        -5.1490   -4.3600   -3.2930 c2        1 36G     -0.174000
     16 CAS        -4.3860   -3.4010   -4.0220 c1        1 36G     -0.145000
     17 CAR        -3.3090   -2.7790   -3.3630 c2        1 36G     -0.080000
     18 NAH        -0.2830   -1.8600    0.2890 n2        1 36G     -0.227000
     19 OAG        -2.5400   -1.8340   -4.0400 os        1 36G     -0.248000
     20 CAH        -2.9590   -1.6030   -5.3850 c3        1 36G     -0.042000
     21 HAF1        1.4030    2.7720    1.5870 hc        1 36G      0.077333
     22 HAF2        1.2630    2.8550   -0.2170 hc        1 36G      0.077333
     23 HAE1        2.7960    2.2640    0.5460 hc        1 36G      0.077333
     24 HAE2        1.4190    0.3690   -0.3800 hc        1 36G      0.112000
     25 HA01        0.0160    0.8850    0.6330 hc        1 36G      0.112000
     26 HA02        2.5790    0.4160    2.1920 ha        1 36G      0.128000
     27 HAB         2.5730   -2.5600    2.8200 hc        1 36G      0.115500
     28 HAA         2.2800   -1.1850    3.9620 hc        1 36G      0.115500
     29 HAI         1.2740   -3.2230    4.9430 ha        1 36G      0.142000
     30 HAJ        -1.1350   -3.5940    4.2680 ha        1 36G      0.173000
     31 HAP        -1.3860   -1.7390   -2.0000 hn        1 36G      0.273000
     32 HAU        -4.1440   -3.5690   -0.3340 hc        1 36G      0.161000
     33 HAV        -3.0450   -4.8740   -0.9120 hc        1 36G      0.161000
     34 HAW        -5.4430   -5.4160   -1.4380 ha        1 36G      0.131000
     35 HAS        -5.9900   -4.8360   -3.8230 ha        1 36G      0.145000
     36 HAH1       -2.8880   -2.5450   -5.9800 h1        1 36G      0.081667
     37 HAH2       -2.2350   -0.8320   -5.7510 h1        1 36G      0.081667
     38 HAH3       -4.0080   -1.2210   -5.4040 h1        1 36G      0.081667
     39 CAO        -1.4340   -2.6220   -0.1240 c2        1 36G      0.340000
@<TRIPOS>BOND
     1    1    2 1   
     2    1   21 1   
     3    1   22 1   
     4    1   23 1   
     5    2   11 1   
     6    2   24 1   
     7    2   25 1   
     8    3    4 1   
     9    3    8 1   
    10    3   11 1   
    11    4    5 1   
    12    4   27 1   
    13    4   28 1   
    14    5    6 1   
    15    5   29 1   
    16    6    7 1   
    17    6   30 1   
    18    7    8 1   
    19    8   18 1   
    20    9   39 1   
    21   10   12 1   
    22   10   31 1   
    23   10   39 1   
    24   11   26 1   
    25   12   13 1   
    26   12   17 1   
    27   13   14 1   
    28   13   32 1   
    29   13   33 1   
    30   14   15 1   
    31   14   34 1   
    32   15   16 1   
    33   15   35 1   
    34   16   17 1   
    35   17   19 1   
    36   18   39 1   
    37   19   20 1   
    38   20   36 1   
    39   20   37 1   
    40   20   38 1   
@<TRIPOS>SUBSTRUCTURE
     1 36G         1 TEMP              0 ****  ****    0 ROOT
