@<TRIPOS>MOLECULE
36G
   40    41     1     0     0
SMALL
bcc


@<TRIPOS>ATOM
      1 CAF         0.1660    0.1040   -0.6410 c3        1 36G      0.116800
      2 CAE         1.4270    0.7970   -0.1320 c3        1 36G     -0.102400
      3 CAC         0.8630   -0.0880    2.1290 cc        1 36G     -0.221800
      4 CAB         1.2100   -0.2640    3.4250 cd        1 36G     -0.071000
      5 CAA         0.7220   -1.3810    4.1900 cd        1 36G     -0.139000
      6 CAI        -0.1130   -2.2830    3.6310 cc        1 36G     -0.078000
      7 CAJ        -0.5250   -2.1550    2.2500 cc        1 36G     -0.362700
      8 CAK        -0.0150   -1.0430    1.4260 cc        1 36G      0.591900
      9 OAT        -2.1060   -3.8250    1.2160 o         1 36G     -0.385500
     10 NAP        -3.3160   -5.5160   -2.9500 nh        1 36G     -0.385100
     11 CA0         1.3190    1.0960    1.3490 c3        1 36G     -0.041200
     12 CAQ        -3.4850   -4.2600   -2.5470 ce        1 36G      0.448600
     13 CAU        -4.8150   -3.8240   -2.0010 c3        1 36G     -0.167500
     14 CAV        -4.9020   -2.4100   -1.5880 c2        1 36G     -0.111200
     15 CAW        -3.8590   -1.5590   -1.6690 cf        1 36G     -0.137000
     16 CAS        -2.5920   -1.9940   -2.1790 cf        1 36G     -0.016000
     17 CAR        -2.4090   -3.2800   -2.6110 ce        1 36G     -0.087500
     18 NAH        -0.3470   -0.9670    0.1660 n2        1 36G     -0.705900
     19 OAG        -1.2400   -3.7810   -3.1520 os        1 36G     -0.345900
     20 CAH        -0.0870   -2.9390   -3.0640 c3        1 36G      0.107700
     21 HAF1       -1.7610   -1.2630   -2.1980 ha        1 36G      0.194000
     22 HAF2       -0.6520    0.8730   -0.7630 h1        1 36G      0.044700
     23 HAE1        0.3730   -0.3330   -1.6610 h1        1 36G      0.044700
     24 HAE2        2.3180    0.1420   -0.3200 hc        1 36G      0.057200
     25 HA01        1.5830    1.7500   -0.7000 hc        1 36G      0.057200
     26 HA02        0.5840    1.9320    1.5100 hc        1 36G      0.062200
     27 HAB         2.3130    1.4510    1.7320 hc        1 36G      0.062200
     28 HAA         1.8750    0.4530    3.9350 ha        1 36G      0.147000
     29 HAI         1.0450   -1.4720    5.2390 ha        1 36G      0.152000
     30 HAJ        -0.5040   -3.1380    4.2030 ha        1 36G      0.138000
     31 HAP        -4.0560   -6.1840   -2.8980 hn        1 36G      0.328700
     32 HAU        -5.0700   -4.4690   -1.1040 hc        1 36G      0.136700
     33 HAV        -5.6160   -4.0200   -2.7790 hc        1 36G      0.136700
     34 HAW        -5.8840   -2.0920   -1.1970 ha        1 36G      0.176000
     35 HAS        -3.9450   -0.5080   -1.3430 ha        1 36G      0.181000
     36 HAH1       -0.2320   -2.0240   -3.6880 h1        1 36G      0.070367
     37 HAH2        0.7240   -3.5860   -3.4890 h1        1 36G      0.070367
     38 HAH3        0.1260   -2.6720   -2.0010 h1        1 36G      0.070367
     39 CAO        -1.3620   -3.0460    1.7110 c1        1 36G      0.633600
     40 HAP2       -2.4300   -5.8180   -3.3100 hn        1 36G      0.328700
@<TRIPOS>BOND
     1    1    2 1   
     2    1   18 1   
     3    1   22 1   
     4    1   23 1   
     5    2   11 1   
     6    2   24 1   
     7    2   25 1   
     8    3    4 2   
     9    3    8 1   
    10    3   11 1   
    11    4    5 1   
    12    4   28 1   
    13    5    6 2   
    14    5   29 1   
    15    6    7 1   
    16    6   30 1   
    17    7    8 1   
    18    7   39 2   
    19    8   18 2   
    20    9   39 2   
    21   10   12 2   
    22   10   31 1   
    23   10   40 1   
    24   11   26 1   
    25   11   27 1   
    26   12   13 1   
    27   12   17 1   
    28   13   14 1   
    29   13   32 1   
    30   13   33 1   
    31   14   15 2   
    32   14   34 1   
    33   15   16 1   
    34   15   35 1   
    35   16   17 2   
    36   16   21 1   
    37   17   19 1   
    38   19   20 1   
    39   20   36 1   
    40   20   37 1   
    41   20   38 1   
@<TRIPOS>SUBSTRUCTURE
     1 36G         1 TEMP              0 ****  ****    0 ROOT
