@<TRIPOS>MOLECULE
36I
   36    39     1     0     0
SMALL
bcc


@<TRIPOS>ATOM
      1 N1         -0.0600   -0.2250   -0.1130 nb        1 36I     -0.672000
      2 C2          1.2850   -0.0340   -0.0900 cp        1 36I      0.723500
      3 N3          2.0660    0.1570    1.0330 nb        1 36I     -0.741000
      4 C4          1.4600    0.1410    2.2450 ca        1 36I      0.699200
      5 C5          0.0430   -0.0570    2.3360 ca        1 36I     -0.351700
      6 C6         -0.6670   -0.2370    1.1020 ca        1 36I      0.460100
      7 CAA        -2.0820   -0.4390    1.3550 cc        1 36I     -0.244800
      8 CAE         1.9980   -0.0150   -1.3970 cp        1 36I     -0.137500
      9 CAF         1.4280    0.6430   -2.4940 ca        1 36I     -0.089000
     10 CAG         2.0970    0.6580   -3.7170 ca        1 36I     -0.142500
     11 CAH        -2.3530   -0.4120    2.6940 cd        1 36I     -0.152400
     12 SAI        -0.9940   -0.1600    3.6490 ss        1 36I      0.093500
     13 CAM         3.2340   -0.6570   -1.5320 ca        1 36I     -0.089000
     14 CAN         3.8940   -0.6390   -2.7600 ca        1 36I     -0.142500
     15 CAO         3.3280    0.0180   -3.8520 ca        1 36I     -0.115000
     16 CAP         3.6600    0.0990    3.3280 c3        1 36I      0.146800
     17 NAQ         2.2120    0.2350    3.4510 nh        1 36I     -0.732300
     18 CAR         1.8370    1.3490    4.3170 c3        1 36I      0.146800
     19 CAS         4.3420    0.0690    4.7020 c3        1 36I      0.122900
     20 OAT         3.9740    1.1900    5.4980 os        1 36I     -0.411600
     21 CAU         2.5660    1.2880    5.6660 c3        1 36I      0.122900
     22 HAA        -2.8030   -0.5920    0.5480 ha        1 36I      0.174000
     23 HAF         0.4540    1.1470   -2.3960 ha        1 36I      0.145500
     24 HAG         1.6480    1.1760   -4.5770 ha        1 36I      0.133500
     25 HAH        -3.3420   -0.5410    3.1370 h4        1 36I      0.176000
     26 HAM         3.6880   -1.1770   -0.6750 ha        1 36I      0.145500
     27 HAN         4.8650   -1.1450   -2.8650 ha        1 36I      0.133500
     28 HAO         3.8520    0.0310   -4.8190 ha        1 36I      0.132000
     29 HAPA        4.1040    0.9430    2.7260 h1        1 36I      0.058450
     30 HAR         0.7270    1.3050    4.5100 h1        1 36I      0.058450
     31 HARA        2.0700    2.3380    3.8270 h1        1 36I      0.058450
     32 HAS         5.4520    0.1660    4.5780 h1        1 36I      0.058200
     33 HASA        4.0950   -0.8780    5.2510 h1        1 36I      0.058200
     34 HAU         2.1980    0.4230    6.2780 h1        1 36I      0.058200
     35 HAUA        2.4150    2.2500    6.2230 h1        1 36I      0.058200
     36 HAP         3.8800   -0.8690    2.7980 h1        1 36I      0.058450
@<TRIPOS>BOND
     1    1    2 ar  
     2    1    6 ar  
     3    2    3 ar  
     4    2    8 1   
     5    3    4 ar  
     6    4    5 ar  
     7    4   17 1   
     8    5    6 ar  
     9    5   12 1   
    10    6    7 1   
    11    7   11 2   
    12    7   22 1   
    13    8    9 ar  
    14    8   13 ar  
    15    9   10 ar  
    16    9   23 1   
    17   10   15 ar  
    18   10   24 1   
    19   11   12 1   
    20   11   25 1   
    21   13   14 ar  
    22   13   26 1   
    23   14   15 ar  
    24   14   27 1   
    25   15   28 1   
    26   16   17 1   
    27   16   19 1   
    28   16   29 1   
    29   16   36 1   
    30   17   18 1   
    31   18   21 1   
    32   18   30 1   
    33   18   31 1   
    34   19   20 1   
    35   19   32 1   
    36   19   33 1   
    37   20   21 1   
    38   21   34 1   
    39   21   35 1   
@<TRIPOS>SUBSTRUCTURE
     1 36I         1 TEMP              0 ****  ****    0 ROOT
