@<TRIPOS>MOLECULE
36I
   36    39     1     0     0
SMALL
bcc


@<TRIPOS>ATOM
      1 N1         -0.0610   -0.2290   -0.1110 nb        1 36I     -0.672000
      2 C2          1.2840   -0.0340   -0.0900 cp        1 36I      0.723500
      3 N3          2.0660    0.1580    1.0330 nb        1 36I     -0.741000
      4 C4          1.4610    0.1390    2.2450 ca        1 36I      0.699200
      5 C5          0.0450   -0.0650    2.3380 ca        1 36I     -0.351700
      6 C6         -0.6660   -0.2460    1.1050 ca        1 36I      0.460100
      7 CAA        -2.0800   -0.4530    1.3590 cc        1 36I     -0.244800
      8 CAE         1.9940   -0.0100   -1.3970 cp        1 36I     -0.137500
      9 CAF         1.4210    0.6480   -2.4930 ca        1 36I     -0.089000
     10 CAG         2.0880    0.6670   -3.7170 ca        1 36I     -0.142500
     11 CAH        -2.3490   -0.4280    2.6990 cd        1 36I     -0.152400
     12 SAI        -0.9890   -0.1730    3.6520 ss        1 36I      0.093500
     13 CAM         3.2340   -0.6470   -1.5350 ca        1 36I     -0.089000
     14 CAN         3.8920   -0.6250   -2.7640 ca        1 36I     -0.142500
     15 CAO         3.3220    0.0320   -3.8550 ca        1 36I     -0.115000
     16 CAP         3.6630    0.1020    3.3250 c3        1 36I      0.146800
     17 NAQ         2.2150    0.2330    3.4500 nh        1 36I     -0.732300
     18 CAR         1.8370    1.3440    4.3190 c3        1 36I      0.146800
     19 CAS         4.3470    0.0720    4.6990 c3        1 36I      0.122900
     20 OAT         3.9760    1.1910    5.4970 os        1 36I     -0.411600
     21 CAU         2.5680    1.2840    5.6670 c3        1 36I      0.122900
     22 HAA        -2.8010   -0.6070    0.5530 ha        1 36I      0.174000
     23 HAF         0.4450    1.1480   -2.3930 ha        1 36I      0.145500
     24 HAG         1.6360    1.1850   -4.5760 ha        1 36I      0.133500
     25 HAH        -3.3370   -0.5620    3.1430 h4        1 36I      0.176000
     26 HAM         3.6910   -1.1670   -0.6800 ha        1 36I      0.145500
     27 HAN         4.8640   -1.1270   -2.8710 ha        1 36I      0.133500
     28 HAO         3.8450    0.0490   -4.8220 ha        1 36I      0.132000
     29 HAPA        3.8860   -0.8640    2.7930 h1        1 36I      0.058450
     30 HAR         2.0660    2.3350    3.8310 h1        1 36I      0.058450
     31 HARA        0.7270    1.2960    4.5130 h1        1 36I      0.058450
     32 HAS         4.1040   -0.8770    5.2460 h1        1 36I      0.058200
     33 HASA        5.4570    0.1730    4.5730 h1        1 36I      0.058200
     34 HAU         2.4140    2.2440    6.2260 h1        1 36I      0.058200
     35 HAUA        2.2040    0.4160    6.2780 h1        1 36I      0.058200
     36 HAP         4.1040    0.9480    2.7240 h1        1 36I      0.058450
@<TRIPOS>BOND
     1    1    2 ar  
     2    1    6 ar  
     3    2    3 ar  
     4    2    8 1   
     5    3    4 ar  
     6    4    5 ar  
     7    4   17 1   
     8    5    6 ar  
     9    5   12 1   
    10    6    7 1   
    11    7   11 2   
    12    7   22 1   
    13    8    9 ar  
    14    8   13 ar  
    15    9   10 ar  
    16    9   23 1   
    17   10   15 ar  
    18   10   24 1   
    19   11   12 1   
    20   11   25 1   
    21   13   14 ar  
    22   13   26 1   
    23   14   15 ar  
    24   14   27 1   
    25   15   28 1   
    26   16   17 1   
    27   16   19 1   
    28   16   29 1   
    29   16   36 1   
    30   17   18 1   
    31   18   21 1   
    32   18   30 1   
    33   18   31 1   
    34   19   20 1   
    35   19   32 1   
    36   19   33 1   
    37   20   21 1   
    38   21   34 1   
    39   21   35 1   
@<TRIPOS>SUBSTRUCTURE
     1 36I         1 TEMP              0 ****  ****    0 ROOT
