@<TRIPOS>MOLECULE
36I
   36    39     1     0     0
SMALL
bcc


@<TRIPOS>ATOM
      1 N1         -1.3980    1.7420    0.1680 nb        1 36I     -0.672000
      2 C2         -1.5440    0.3960    0.0580 cp        1 36I      0.723500
      3 N3         -0.5260   -0.5360    0.0020 nb        1 36I     -0.741000
      4 C4          0.7530   -0.0940    0.0770 ca        1 36I      0.699200
      5 C5          1.0210    1.3100    0.1980 ca        1 36I     -0.351700
      6 C6         -0.1150    2.1850    0.2390 ca        1 36I      0.460100
      7 CAA         0.3110    3.5660    0.3770 cc        1 36I     -0.244800
      8 CAE        -2.9300   -0.1400   -0.0210 cp        1 36I     -0.137500
      9 CAF        -3.8910    0.5210   -0.7950 ca        1 36I     -0.089000
     10 CAG        -5.1900    0.0180   -0.8660 ca        1 36I     -0.142500
     11 CAH         1.6730    3.6570    0.4380 cd        1 36I     -0.152400
     12 SAI         2.4510    2.1710    0.3420 ss        1 36I      0.093500
     13 CAM        -3.2760   -1.3020    0.6800 ca        1 36I     -0.089000
     14 CAN        -4.5770   -1.7960    0.6050 ca        1 36I     -0.142500
     15 CAO        -5.5340   -1.1390   -0.1680 ca        1 36I     -0.115000
     16 CAP         1.5230   -2.4080    0.3330 c3        1 36I      0.146800
     17 NAQ         1.8500   -1.0010    0.1210 nh        1 36I     -0.732300
     18 CAR         2.8340   -0.8190   -0.9410 c3        1 36I      0.146800
     19 CAS         2.7880   -3.2600    0.5100 c3        1 36I      0.122900
     20 OAT         3.7020   -3.0760   -0.5660 os        1 36I     -0.411600
     21 CAU         4.0650   -1.7120   -0.7320 c3        1 36I      0.122900
     22 HAA        -0.3990    4.3940    0.4240 ha        1 36I      0.174000
     23 HAF        -3.6280    1.4370   -1.3460 ha        1 36I      0.145500
     24 HAG        -5.9430    0.5380   -1.4760 ha        1 36I      0.133500
     25 HAH         2.2360    4.5860    0.5440 h4        1 36I      0.176000
     26 HAM        -2.5260   -1.8270    1.2910 ha        1 36I      0.145500
     27 HAN        -4.8470   -2.7080    1.1570 ha        1 36I      0.133500
     28 HAO        -6.5600   -1.5320   -0.2260 ha        1 36I      0.132000
     29 HAPA        0.9270   -2.8270   -0.5280 h1        1 36I      0.058450
     30 HAR         2.3880   -1.0540   -1.9500 h1        1 36I      0.058450
     31 HARA        3.1710    0.2560   -0.9480 h1        1 36I      0.058450
     32 HAS         3.2970   -3.0220    1.4810 h1        1 36I      0.058200
     33 HASA        2.5220   -4.3480    0.4690 h1        1 36I      0.058200
     34 HAU         4.7030   -1.7010   -1.6550 h1        1 36I      0.058200
     35 HAUA        4.6600   -1.3690    0.1550 h1        1 36I      0.058200
     36 HAP         0.9020   -2.4900    1.2670 h1        1 36I      0.058450
@<TRIPOS>BOND
     1    1    2 ar  
     2    1    6 ar  
     3    2    3 ar  
     4    2    8 1   
     5    3    4 ar  
     6    4    5 ar  
     7    4   17 1   
     8    5    6 ar  
     9    5   12 1   
    10    6    7 1   
    11    7   11 2   
    12    7   22 1   
    13    8    9 ar  
    14    8   13 ar  
    15    9   10 ar  
    16    9   23 1   
    17   10   15 ar  
    18   10   24 1   
    19   11   12 1   
    20   11   25 1   
    21   13   14 ar  
    22   13   26 1   
    23   14   15 ar  
    24   14   27 1   
    25   15   28 1   
    26   16   17 1   
    27   16   19 1   
    28   16   29 1   
    29   16   36 1   
    30   17   18 1   
    31   18   21 1   
    32   18   30 1   
    33   18   31 1   
    34   19   20 1   
    35   19   32 1   
    36   19   33 1   
    37   20   21 1   
    38   21   34 1   
    39   21   35 1   
@<TRIPOS>SUBSTRUCTURE
     1 36I         1 TEMP              0 ****  ****    0 ROOT
