@<TRIPOS>MOLECULE
36I
   36    39     1     0     0
SMALL
bcc


@<TRIPOS>ATOM
      1 N1         -0.0580   -0.2400   -0.1120 nb        1 36I     -0.672000
      2 C2          1.2860   -0.0370   -0.0900 cp        1 36I      0.723500
      3 N3          2.0660    0.1600    1.0330 nb        1 36I     -0.741000
      4 C4          1.4610    0.1370    2.2450 ca        1 36I      0.699200
      5 C5          0.0460   -0.0750    2.3370 ca        1 36I     -0.351700
      6 C6         -0.6630   -0.2600    1.1040 ca        1 36I      0.460100
      7 CAA        -2.0760   -0.4750    1.3570 cc        1 36I     -0.244800
      8 CAE         1.9970   -0.0090   -1.3970 cp        1 36I     -0.137500
      9 CAF         1.4210    0.6470   -2.4920 ca        1 36I     -0.089000
     10 CAG         2.0880    0.6700   -3.7160 ca        1 36I     -0.142500
     11 CAH        -2.3460   -0.4520    2.6970 cd        1 36I     -0.152400
     12 SAI        -0.9880   -0.1890    3.6510 ss        1 36I      0.093500
     13 CAM         3.2390   -0.6410   -1.5350 ca        1 36I     -0.089000
     14 CAN         3.8980   -0.6150   -2.7640 ca        1 36I     -0.142500
     15 CAO         3.3250    0.0400   -3.8540 ca        1 36I     -0.115000
     16 CAP         3.6630    0.1130    3.3260 c3        1 36I      0.146800
     17 NAQ         2.2140    0.2360    3.4500 nh        1 36I     -0.732300
     18 CAR         1.8290    1.3440    4.3190 c3        1 36I      0.146800
     19 CAS         4.3460    0.0860    4.7000 c3        1 36I      0.122900
     20 OAT         3.9690    1.2020    5.4980 os        1 36I     -0.411600
     21 CAU         2.5600    1.2870    5.6680 c3        1 36I      0.122900
     22 HAA        -2.7960   -0.6330    0.5510 ha        1 36I      0.174000
     23 HAF         0.4430    1.1420   -2.3930 ha        1 36I      0.145500
     24 HAG         1.6350    1.1860   -4.5750 ha        1 36I      0.133500
     25 HAH        -3.3330   -0.5920    3.1410 h4        1 36I      0.176000
     26 HAM         3.6980   -1.1590   -0.6800 ha        1 36I      0.145500
     27 HAN         4.8720   -1.1130   -2.8710 ha        1 36I      0.133500
     28 HAO         3.8480    0.0590   -4.8210 ha        1 36I      0.132000
     29 HAPA        3.8910   -0.8520    2.7940 h1        1 36I      0.058450
     30 HAR         2.0530    2.3360    3.8310 h1        1 36I      0.058450
     31 HARA        0.7200    1.2900    4.5120 h1        1 36I      0.058450
     32 HAS         5.4550    0.1940    4.5750 h1        1 36I      0.058200
     33 HASA        4.1090   -0.8640    5.2470 h1        1 36I      0.058200
     34 HAU         2.4000    2.2460    6.2270 h1        1 36I      0.058200
     35 HAUA        2.2000    0.4170    6.2780 h1        1 36I      0.058200
     36 HAP         4.0990    0.9620    2.7260 h1        1 36I      0.058450
@<TRIPOS>BOND
     1    1    2 ar  
     2    1    6 ar  
     3    2    3 ar  
     4    2    8 1   
     5    3    4 ar  
     6    4    5 ar  
     7    4   17 1   
     8    5    6 ar  
     9    5   12 1   
    10    6    7 1   
    11    7   11 2   
    12    7   22 1   
    13    8    9 ar  
    14    8   13 ar  
    15    9   10 ar  
    16    9   23 1   
    17   10   15 ar  
    18   10   24 1   
    19   11   12 1   
    20   11   25 1   
    21   13   14 ar  
    22   13   26 1   
    23   14   15 ar  
    24   14   27 1   
    25   15   28 1   
    26   16   17 1   
    27   16   19 1   
    28   16   29 1   
    29   16   36 1   
    30   17   18 1   
    31   18   21 1   
    32   18   30 1   
    33   18   31 1   
    34   19   20 1   
    35   19   32 1   
    36   19   33 1   
    37   20   21 1   
    38   21   34 1   
    39   21   35 1   
@<TRIPOS>SUBSTRUCTURE
     1 36I         1 TEMP              0 ****  ****    0 ROOT
