@<TRIPOS>MOLECULE
36I
   36    30     1     0     0
SMALL
bcc


@<TRIPOS>ATOM
      1 N1         -1.6470    0.3430   -1.3660 n1        1 36I     -0.156000
      2 C2         -0.2730    0.2480   -1.3540 c1        1 36I      0.098000
      3 N3          0.4100    0.1430   -0.1460 n1        1 36I     -0.228000
      4 C4         -0.2760    0.1340    1.0240 c1        1 36I      0.196000
      5 C5         -1.6370    0.2280    1.0170 c1        1 36I     -0.462000
      6 C6         -2.3300    0.3350   -0.2130 c1        1 36I      0.030000
      7 CAA        -3.9100    0.3790    0.0970 c1        1 36I     -0.137000
      8 CAE         0.1790    0.1480   -2.7940 c2        1 36I     -0.030000
      9 CAF         0.4580    1.2990   -3.5130 c2        1 36I     -0.089000
     10 CAG         0.8930    1.2070   -4.8260 c1        1 36I     -0.142000
     11 CAH        -4.0940    0.2950    1.5210 c1        1 36I     -0.389000
     12 SAI        -2.7020    0.1970    2.1710 s         1 36I      0.546000
     13 CAM         0.3340   -1.0950   -3.3870 c1        1 36I     -0.089000
     14 CAN         0.7690   -1.1870   -4.6990 c1        1 36I     -0.129500
     15 CAO         1.0480   -0.0360   -5.4190 c1        1 36I     -0.129500
     16 CAP         0.9880   -1.2200    2.1930 c3        1 36I     -0.080500
     17 NAQ         0.3700   -0.1220    2.2610 n3        1 36I     -0.236000
     18 CAR         0.7940    0.9630    2.7470 c3        1 36I     -0.080500
     19 CAS         1.7890   -1.4760    3.4500 c3        1 36I     -0.034000
     20 OAT         1.3040   -0.6430    4.6450 os        1 36I     -0.276000
     21 CAU         1.5940    0.7240    4.0070 c3        1 36I     -0.034000
     22 HAA        -4.6210    0.4500   -0.5680 DU        1 36I      0.175000
     23 HAF         0.3490    2.1750   -3.0960 ha        1 36I      0.147000
     24 HAG         1.0900    2.0180   -5.3330 ha        1 36I      0.134000
     25 HAH        -4.9500    0.2410    1.9860 DU        1 36I      0.175000
     26 HAM         0.1370   -1.9050   -2.8800 ha        1 36I      0.144000
     27 HAN         0.8780   -2.0620   -5.1170 ha        1 36I      0.132000
     28 HAO         1.3540   -0.1010   -6.3440 ha        1 36I      0.132000
     29 HAP         1.5950   -1.1990    1.4250 h1        1 36I      0.106250
     30 HAPA        0.3410   -1.9460    2.0720 h1        1 36I      0.106250
     31 HAR         1.3630    1.4090    2.0860 h1        1 36I      0.106250
     32 HARA        0.0310    1.5410    2.9560 h1        1 36I      0.106250
     33 HAS         1.7220   -2.4240    3.6790 h1        1 36I      0.096250
     34 HASA        2.7270   -1.2600    3.2750 h1        1 36I      0.096250
     35 HAU         2.5460    0.7750    3.7900 h1        1 36I      0.096250
     36 HAUA        1.3790    1.4250    4.6540 h1        1 36I      0.096250
@<TRIPOS>BOND
     1    1    6 1   
     2    2    3 1   
     3    2    8 1   
     4    4    5 1   
     5    4   17 1   
     6    7   11 1   
     7    8    9 1   
     8    8   13 1   
     9    9   10 1   
    10    9   23 1   
    11   10   24 1   
    12   11   12 1   
    13   13   26 1   
    14   14   15 1   
    15   14   27 1   
    16   15   28 1   
    17   16   17 1   
    18   16   19 1   
    19   16   29 1   
    20   16   30 1   
    21   17   18 1   
    22   18   21 1   
    23   18   31 1   
    24   18   32 1   
    25   19   20 1   
    26   19   33 1   
    27   19   34 1   
    28   20   21 1   
    29   21   35 1   
    30   21   36 1   
@<TRIPOS>SUBSTRUCTURE
     1 36I         1 TEMP              0 ****  ****    0 ROOT
