@<TRIPOS>MOLECULE
36J
   47    48     1     0     0
SMALL
bcc


@<TRIPOS>ATOM
      1 CAO        -0.1800    0.0620   -0.2890 c3        1 36J     -0.109400
      2 CAL         1.2930    0.0270    0.0590 c3        1 36J     -0.084400
      3 CAM         1.5550    0.2960    1.5270 c3        1 36J     -0.104400
      4 CAV         3.0500    0.2690    1.8450 c3        1 36J      0.146100
      5 CAA         3.3670   -0.6220    3.0320 c3        1 36J     -0.095100
      6 OAP         3.4810    1.5900    2.2450 os        1 36J     -0.433900
      7 CAQ         3.7940    2.4830    1.2580 c         1 36J      0.674700
      8 OAB         3.7570    2.1070    0.0840 o         1 36J     -0.540000
      9 CAU         4.1360    3.8250    1.7610 ca        1 36J     -0.178600
     10 CAS         5.3850    4.3900    1.4230 ca        1 36J      0.206100
     11 OAD         6.2500    3.6030    0.7080 oh        1 36J     -0.478100
     12 CAH         5.7280    5.6880    1.8200 ca        1 36J     -0.261000
     13 CAR         4.8010    6.4200    2.5720 ca        1 36J      0.188100
     14 OAC         5.1780    7.6900    2.9330 oh        1 36J     -0.491100
     15 CAI         3.5620    5.8720    2.9340 ca        1 36J     -0.255000
     16 CAT         3.2330    4.5740    2.5330 ca        1 36J      0.072200
     17 CAG         1.9620    4.0050    2.9800 ce        1 36J     -0.143200
     18 CAF         0.8120    3.9870    2.3020 c2        1 36J     -0.135200
     19 CAJ         0.5920    4.5300    0.9390 c3        1 36J     -0.054200
     20 CAK         0.5410    3.4300   -0.1060 c3        1 36J     -0.085400
     21 CAN        -0.6810    2.5510    0.0400 c3        1 36J     -0.106400
     22 CAW        -0.7030    1.3560   -0.9110 c3        1 36J      0.144100
     23 OAE        -0.0850    1.6340   -2.1540 oh        1 36J     -0.598800
     24 H1         -0.3850   -0.7570   -1.0310 hc        1 36J      0.047700
     25 H2         -0.7930   -0.1560    0.6250 hc        1 36J      0.047700
     26 H3          1.8710    0.7650   -0.5590 hc        1 36J      0.052200
     27 H4          1.6990   -0.9900   -0.1960 hc        1 36J      0.052200
     28 H5          1.1400    1.3020    1.8080 hc        1 36J      0.053700
     29 H6          1.0260   -0.4710    2.1500 hc        1 36J      0.053700
     30 H7          3.6460   -0.0510    0.9450 h1        1 36J      0.074700
     31 H8          2.7960   -0.2930    3.9330 hc        1 36J      0.046700
     32 H9          4.4570   -0.5740    3.2680 hc        1 36J      0.046700
     33 H10         3.0890   -1.6730    2.7850 hc        1 36J      0.046700
     34 H11         7.0330    4.1320    0.4900 ho        1 36J      0.429000
     35 H12         6.6970    6.1320    1.5540 ha        1 36J      0.159000
     36 H13         4.4570    8.0840    3.4470 ho        1 36J      0.427000
     37 H14         2.8500    6.4570    3.5330 ha        1 36J      0.145000
     38 H15         2.0230    3.5510    3.9870 ha        1 36J      0.144000
     39 H16        -0.0780    3.5230    2.7640 ha        1 36J      0.124000
     40 H17         1.4160    5.2440    0.6680 hc        1 36J      0.051200
     41 H18        -0.3720    5.1070    0.9250 hc        1 36J      0.051200
     42 H19         1.4740    2.8070   -0.0310 hc        1 36J      0.057200
     43 H20         0.5350    3.9010   -1.1250 hc        1 36J      0.057200
     44 H21        -1.5930    3.1760   -0.1550 hc        1 36J      0.043200
     45 H22        -0.7580    2.1740    1.0940 hc        1 36J      0.043200
     46 H23        -1.7810    1.1690   -1.2060 h1        1 36J      0.064700
     47 H24         0.8580    1.7660   -1.9960 ho        1 36J      0.406000
@<TRIPOS>BOND
     1    1    2 1   
     2    1   22 1   
     3    1   24 1   
     4    1   25 1   
     5    2    3 1   
     6    2   26 1   
     7    2   27 1   
     8    3    4 1   
     9    3   28 1   
    10    3   29 1   
    11    4    5 1   
    12    4    6 1   
    13    4   30 1   
    14    5   31 1   
    15    5   32 1   
    16    5   33 1   
    17    6    7 1   
    18    7    8 2   
    19    7    9 1   
    20    9   10 ar  
    21    9   16 ar  
    22   10   11 1   
    23   10   12 ar  
    24   11   34 1   
    25   12   13 ar  
    26   12   35 1   
    27   13   14 1   
    28   13   15 ar  
    29   14   36 1   
    30   15   16 ar  
    31   15   37 1   
    32   16   17 1   
    33   17   18 2   
    34   17   38 1   
    35   18   19 1   
    36   18   39 1   
    37   19   20 1   
    38   19   40 1   
    39   19   41 1   
    40   20   21 1   
    41   20   42 1   
    42   20   43 1   
    43   21   22 1   
    44   21   44 1   
    45   21   45 1   
    46   22   23 1   
    47   22   46 1   
    48   23   47 1   
@<TRIPOS>SUBSTRUCTURE
     1 36J         1 TEMP              0 ****  ****    0 ROOT
