@<TRIPOS>MOLECULE
36K
   41    43     1     0     0
SMALL
bcc


@<TRIPOS>ATOM
      1 CAF        -2.8160   -3.3000    0.4380 c3        1 36K     -0.126100
      2 CAE        -2.7760   -2.0140    1.2510 c3        1 36K      0.035300
      3 NAD        -2.7340   -0.7960    0.5000 na        1 36K     -0.179300
      4 CAC        -3.8500   -0.0950    0.0170 ca        1 36K     -0.069200
      5 CAB        -5.2080   -0.1390    0.3530 ca        1 36K     -0.133000
      6 CAA        -6.0580    0.7520   -0.2880 ca        1 36K     -0.115000
      7 CAI        -5.5840    1.6700   -1.2390 ca        1 36K     -0.152000
      8 CAJ        -4.2420    1.7330   -1.5900 ca        1 36K     -0.069000
      9 CAK        -3.3520    0.8450   -0.9700 ca        1 36K      0.074400
     10 NAL        -1.9630    0.6800   -1.1390 nc        1 36K     -0.530100
     11 CAM        -1.6170   -0.3180   -0.2850 cd        1 36K      0.467400
     12 NAN        -0.3240   -0.8520   -0.1350 n         1 36K     -0.476400
     13 CAO         0.7440   -0.0030    0.2680 c         1 36K      0.764100
     14 OAT         0.5410    1.1950    0.5400 o         1 36K     -0.569100
     15 NAP         2.0140   -0.6200    0.3930 n         1 36K     -0.432100
     16 CAQ         3.1910    0.1630    0.4480 ca        1 36K      0.022600
     17 CAU         3.2720    1.3250    1.2370 ca        1 36K     -0.101000
     18 CAV         4.4680    2.0340    1.3400 ca        1 36K     -0.141000
     19 CAW         5.6070    1.6040    0.6690 ca        1 36K     -0.112000
     20 CAS         5.5610    0.4560   -0.1210 ca        1 36K     -0.183000
     21 CAR         4.3680   -0.2580   -0.2420 ca        1 36K      0.086100
     22 OAG         4.2470   -1.4170   -0.9950 os        1 36K     -0.350900
     23 CAH         5.3340   -1.7210   -1.8600 c3        1 36K      0.120700
     24 HAF1       -1.9130   -3.4020   -0.2110 hc        1 36K      0.047700
     25 HAF2       -2.8480   -4.1670    1.1410 hc        1 36K      0.047700
     26 HAF3       -3.7210   -3.3360   -0.2140 hc        1 36K      0.047700
     27 HAE1       -3.6930   -1.9720    1.9090 h1        1 36K      0.061700
     28 HAE2       -1.8710   -2.0340    1.9270 h1        1 36K      0.061700
     29 HAB        -5.5870   -0.8480    1.1010 ha        1 36K      0.133000
     30 HAA        -7.1300    0.7430   -0.0430 ha        1 36K      0.131000
     31 HAI        -6.2980    2.3580   -1.7160 ha        1 36K      0.133000
     32 HAJ        -3.8770    2.4580   -2.3300 ha        1 36K      0.150000
     33 HAN        -0.2770   -1.8250    0.0690 hn        1 36K      0.320500
     34 HAP         2.1400   -1.4800   -0.1040 hn        1 36K      0.316500
     35 HAU         2.3760    1.6920    1.7660 ha        1 36K      0.170000
     36 HAV         4.5010    2.9430    1.9590 ha        1 36K      0.139000
     37 HAW         6.5480    2.1660    0.7560 ha        1 36K      0.135000
     38 HAS         6.4670    0.1240   -0.6480 ha        1 36K      0.138000
     39 HAH1        6.2390   -1.9960   -1.2660 h1        1 36K      0.046033
     40 HAH2        4.9630   -2.6030   -2.4420 h1        1 36K      0.046033
     41 HAH3        5.5560   -0.8630   -2.5400 h1        1 36K      0.046033
@<TRIPOS>BOND
     1    1    2 1   
     2    1   24 1   
     3    1   25 1   
     4    1   26 1   
     5    2    3 1   
     6    2   27 1   
     7    2   28 1   
     8    3    4 1   
     9    3   11 1   
    10    4    5 ar  
    11    4    9 ar  
    12    5    6 ar  
    13    5   29 1   
    14    6    7 ar  
    15    6   30 1   
    16    7    8 ar  
    17    7   31 1   
    18    8    9 ar  
    19    8   32 1   
    20    9   10 1   
    21   10   11 2   
    22   11   12 1   
    23   12   13 1   
    24   12   33 1   
    25   13   14 2   
    26   13   15 1   
    27   15   16 1   
    28   15   34 1   
    29   16   17 ar  
    30   16   21 ar  
    31   17   18 ar  
    32   17   35 1   
    33   18   19 ar  
    34   18   36 1   
    35   19   20 ar  
    36   19   37 1   
    37   20   21 ar  
    38   20   38 1   
    39   21   22 1   
    40   22   23 1   
    41   23   39 1   
    42   23   40 1   
    43   23   41 1   
@<TRIPOS>SUBSTRUCTURE
     1 36K         1 TEMP              0 ****  ****    0 ROOT
