@<TRIPOS>MOLECULE
36K
   41    43     1     0     0
SMALL
bcc


@<TRIPOS>ATOM
      1 CAF         0.8020    0.1020   -0.5250 c3        1 36K     -0.126100
      2 CAE         2.1940    0.1170    0.0920 c3        1 36K      0.035300
      3 NAD         2.2490    0.0200    1.5200 na        1 36K     -0.179300
      4 CAC         2.2690   -1.1740    2.2570 ca        1 36K     -0.069200
      5 CAB         2.5570   -2.4960    1.9020 ca        1 36K     -0.133000
      6 CAA         2.5450   -3.4490    2.9120 ca        1 36K     -0.115000
      7 CAI         2.2560   -3.1110    4.2440 ca        1 36K     -0.152000
      8 CAJ         1.9660   -1.8070    4.6200 ca        1 36K     -0.069000
      9 CAK         1.9610   -0.8150    3.6300 ca        1 36K      0.074400
     10 NAL         1.6940    0.5650    3.7230 nc        1 36K     -0.530100
     11 CAM         1.8370    1.0410    2.4590 cd        1 36K      0.467400
     12 NAN         1.6300    2.3740    2.0590 ns        1 36K     -0.476400
     13 CAO         2.4100    3.4110    2.6440 c         1 36K      0.764100
     14 OAT         3.3090    3.1490    3.4650 o         1 36K     -0.569100
     15 NAP         2.1360    4.7240    2.1880 ns        1 36K     -0.432100
     16 CAQ         2.5870    5.8470    2.9210 ca        1 36K      0.022600
     17 CAU         3.8880    5.9110    3.4540 ca        1 36K     -0.101000
     18 CAV         4.3370    7.0610    4.1010 ca        1 36K     -0.141000
     19 CAW         3.5110    8.1720    4.2280 ca        1 36K     -0.112000
     20 CAS         2.2170    8.1430    3.7100 ca        1 36K     -0.183000
     21 CAR         1.7490    6.9940    3.0690 ca        1 36K      0.086100
     22 OAG         0.4820    6.8930    2.5140 os        1 36K     -0.350900
     23 CAH        -0.4340    7.9290    2.8480 c3        1 36K      0.120700
     24 HAF1        0.1840    0.9570   -0.1620 hc        1 36K      0.047700
     25 HAF2        0.2650   -0.8460   -0.2820 hc        1 36K      0.047700
     26 HAF3        0.9020    0.1800   -1.6350 hc        1 36K      0.047700
     27 HAE1        2.7200    1.0690   -0.2100 h1        1 36K      0.061700
     28 HAE2        2.7860   -0.7490   -0.3270 h1        1 36K      0.061700
     29 HAB         2.7920   -2.7690    0.8650 ha        1 36K      0.133000
     30 HAA         2.7700   -4.4970    2.6640 ha        1 36K      0.131000
     31 HAI         2.2620   -3.9040    5.0070 ha        1 36K      0.133000
     32 HAJ         1.7460   -1.5480    5.6660 ha        1 36K      0.150000
     33 HAN         1.2550    2.5010    1.1460 hn        1 36K      0.320500
     34 HAP         1.2410    4.8690    1.7640 hn        1 36K      0.316500
     35 HAU         4.5550    5.0350    3.3780 ha        1 36K      0.170000
     36 HAV         5.3560    7.0800    4.5140 ha        1 36K      0.139000
     37 HAW         3.8720    9.0780    4.7370 ha        1 36K      0.135000
     38 HAS         1.5710    9.0250    3.8150 ha        1 36K      0.138000
     39 HAH1       -0.5260    8.0400    3.9550 h1        1 36K      0.046033
     40 HAH2       -1.3990    7.5750    2.4040 h1        1 36K      0.046033
     41 HAH3       -0.1180    8.8930    2.3800 h1        1 36K      0.046033
@<TRIPOS>BOND
     1    1    2 1   
     2    1   24 1   
     3    1   25 1   
     4    1   26 1   
     5    2    3 1   
     6    2   27 1   
     7    2   28 1   
     8    3    4 1   
     9    3   11 1   
    10    4    5 ar  
    11    4    9 ar  
    12    5    6 ar  
    13    5   29 1   
    14    6    7 ar  
    15    6   30 1   
    16    7    8 ar  
    17    7   31 1   
    18    8    9 ar  
    19    8   32 1   
    20    9   10 1   
    21   10   11 2   
    22   11   12 1   
    23   12   13 1   
    24   12   33 1   
    25   13   14 2   
    26   13   15 1   
    27   15   16 1   
    28   15   34 1   
    29   16   17 ar  
    30   16   21 ar  
    31   17   18 ar  
    32   17   35 1   
    33   18   19 ar  
    34   18   36 1   
    35   19   20 ar  
    36   19   37 1   
    37   20   21 ar  
    38   20   38 1   
    39   21   22 1   
    40   22   23 1   
    41   23   39 1   
    42   23   40 1   
    43   23   41 1   
@<TRIPOS>SUBSTRUCTURE
     1 36K         1 TEMP              0 ****  ****    0 ROOT
