@<TRIPOS>MOLECULE
36K
   43    45     1     0     0
SMALL
bcc


@<TRIPOS>ATOM
      1 CAF        -1.1240    0.0430    1.7340 c3        1 36K     -0.128100
      2 CAE         0.0180    0.3460    0.7790 c3        1 36K      0.007300
      3 NAD         1.3080    0.5290    1.3980 na        1 36K     -0.082300
      4 CAC         2.4050   -0.3350    1.3660 ca        1 36K     -0.017200
      5 CAB         2.6100   -1.5740    0.7290 ca        1 36K     -0.135000
      6 CAA         3.8420   -2.1760    0.8970 ca        1 36K     -0.038000
      7 CAI         4.8720   -1.5840    1.6730 ca        1 36K     -0.105000
      8 CAJ         4.7070   -0.3730    2.3060 ca        1 36K     -0.062000
      9 CAK         3.4600    0.2860    2.1670 ca        1 36K      0.080400
     10 NAL         3.0120    1.4920    2.6780 nc        1 36K     -0.563100
     11 CAM         1.7280    1.6170    2.2010 cd        1 36K      0.311700
     12 NAN         0.8960    2.7810    2.5150 n4        1 36K     -0.544800
     13 CAO         1.0740    3.1360    3.9670 c         1 36K      0.518100
     14 OAT         0.1930    2.8760    4.7670 o         1 36K     -0.311100
     15 NAP         2.3480    3.8130    4.3650 n4        1 36K     -0.464200
     16 CAQ         2.1990    5.2680    4.3140 ca        1 36K     -0.152400
     17 CAU         1.9550    5.9920    5.5020 ca        1 36K     -0.055000
     18 CAV         1.9010    7.3780    5.4550 ca        1 36K     -0.115000
     19 CAW         2.0770    8.0580    4.2430 ca        1 36K     -0.001000
     20 CAS         2.3010    7.3560    3.0610 ca        1 36K     -0.167000
     21 CAR         2.3540    5.9580    3.0820 ca        1 36K      0.164100
     22 OAG         2.5250    5.1670    1.9670 os        1 36K     -0.420900
     23 CAH         3.0260    5.8180    0.7840 c3        1 36K      0.117700
     24 HAF1       -2.0460   -0.1410    1.1250 hc        1 36K      0.068367
     25 HAF2       -0.9220   -0.8730    2.3420 hc        1 36K      0.068367
     26 HAF3       -1.3290    0.8910    2.4290 hc        1 36K      0.068367
     27 HAE1        0.1240   -0.5170    0.0530 h1        1 36K      0.093700
     28 HAE2       -0.2170    1.2700    0.1750 h1        1 36K      0.093700
     29 HAB         1.8210   -2.0450    0.1240 ha        1 36K      0.171000
     30 HAA         4.0400   -3.1510    0.4150 ha        1 36K      0.181000
     31 HAI         5.8330   -2.1220    1.7640 ha        1 36K      0.181000
     32 HAJ         5.5120    0.0830    2.9040 ha        1 36K      0.173000
     33 HAN        -0.1060    2.5530    2.3570 hn        1 36K      0.511300
     34 HAP         2.5590    3.5200    5.3380 hn        1 36K      0.517800
     35 HAU         1.8180    5.4750    6.4680 ha        1 36K      0.175000
     36 HAV         1.7200    7.9480    6.3850 ha        1 36K      0.198000
     37 HAW         2.0370    9.1650    4.2230 ha        1 36K      0.196000
     38 HAS         2.4370    7.9020    2.1110 ha        1 36K      0.190000
     39 HAH1        2.2310    6.4760    0.3570 h1        1 36K      0.082700
     40 HAH2        3.2550    4.9590    0.1030 h1        1 36K      0.082700
     41 HAH3        3.9500    6.3970    1.0230 h1        1 36K      0.082700
     42 HAN2        1.1810    3.5740    1.9010 hn        1 36K      0.511300
     43 HAP2        3.1390    3.5320    3.7460 hn        1 36K      0.517800
@<TRIPOS>BOND
     1    1    2 1   
     2    1   24 1   
     3    1   25 1   
     4    1   26 1   
     5    2    3 1   
     6    2   27 1   
     7    2   28 1   
     8    3    4 1   
     9    3   11 1   
    10    4    5 ar  
    11    4    9 ar  
    12    5    6 ar  
    13    5   29 1   
    14    6    7 ar  
    15    6   30 1   
    16    7    8 ar  
    17    7   31 1   
    18    8    9 ar  
    19    8   32 1   
    20    9   10 1   
    21   10   11 2   
    22   11   12 1   
    23   12   13 1   
    24   12   33 1   
    25   12   42 1   
    26   13   14 2   
    27   13   15 1   
    28   15   16 1   
    29   15   34 1   
    30   15   43 1   
    31   16   17 ar  
    32   16   21 ar  
    33   17   18 ar  
    34   17   35 1   
    35   18   19 ar  
    36   18   36 1   
    37   19   20 ar  
    38   19   37 1   
    39   20   21 ar  
    40   20   38 1   
    41   21   22 1   
    42   22   23 1   
    43   23   39 1   
    44   23   40 1   
    45   23   41 1   
@<TRIPOS>SUBSTRUCTURE
     1 36K         1 TEMP              0 ****  ****    0 ROOT
