@<TRIPOS>MOLECULE
36K
   41    43     1     0     0
SMALL
bcc


@<TRIPOS>ATOM
      1 CAF         0.7650    0.1130   -0.5200 c3        1 36K     -0.126100
      2 CAE         2.1670    0.1340    0.0740 c3        1 36K      0.035300
      3 NAD         2.2470    0.0280    1.5000 na        1 36K     -0.179300
      4 CAC         2.2870   -1.1700    2.2300 ca        1 36K     -0.069200
      5 CAB         2.5780   -2.4880    1.8610 ca        1 36K     -0.133000
      6 CAA         2.5890   -3.4480    2.8640 ca        1 36K     -0.115000
      7 CAI         2.3210   -3.1200    4.2040 ca        1 36K     -0.152000
      8 CAJ         2.0290   -1.8210    4.5930 ca        1 36K     -0.069000
      9 CAK         2.0010   -0.8230    3.6100 ca        1 36K      0.074400
     10 NAL         1.7260    0.5550    3.7160 nc        1 36K     -0.530100
     11 CAM         1.8440    1.0400    2.4530 cd        1 36K      0.467400
     12 NAN         1.6210    2.3740    2.0660 n         1 36K     -0.476400
     13 CAO         2.4060    3.4120    2.6430 c         1 36K      0.764100
     14 OAT         3.3210    3.1510    3.4450 o         1 36K     -0.569100
     15 NAP         2.1160    4.7270    2.2000 n         1 36K     -0.432100
     16 CAQ         2.5740    5.8480    2.9300 ca        1 36K      0.022600
     17 CAU         3.8840    5.9160    3.4400 ca        1 36K     -0.101000
     18 CAV         4.3380    7.0650    4.0850 ca        1 36K     -0.141000
     19 CAW         3.5090    8.1710    4.2330 ca        1 36K     -0.112000
     20 CAS         2.2050    8.1370    3.7390 ca        1 36K     -0.183000
     21 CAR         1.7320    6.9890    3.1010 ca        1 36K      0.086100
     22 OAG         0.4560    6.8840    2.5690 os        1 36K     -0.350900
     23 CAH        -0.4600    7.9140    2.9240 c3        1 36K      0.120700
     24 HAF1        0.8460    0.2000   -1.6300 hc        1 36K      0.047700
     25 HAF2        0.1480    0.9620   -0.1410 hc        1 36K      0.047700
     26 HAF3        0.2380   -0.8400   -0.2740 hc        1 36K      0.047700
     27 HAE1        2.7570   -0.7250   -0.3600 h1        1 36K      0.061700
     28 HAE2        2.6810    1.0910   -0.2300 h1        1 36K      0.061700
     29 HAB         2.7960   -2.7530    0.8180 ha        1 36K      0.133000
     30 HAA         2.8170   -4.4930    2.6060 ha        1 36K      0.131000
     31 HAI         2.3460   -3.9180    4.9610 ha        1 36K      0.133000
     32 HAJ         1.8260   -1.5690    5.6440 ha        1 36K      0.150000
     33 HAN         1.2290    2.5040    1.1600 hn        1 36K      0.320500
     34 HAP         1.2120    4.8690    1.7920 hn        1 36K      0.316500
     35 HAU         4.5540    5.0450    3.3460 ha        1 36K      0.170000
     36 HAV         5.3650    7.0880    4.4790 ha        1 36K      0.139000
     37 HAW         3.8740    9.0750    4.7410 ha        1 36K      0.135000
     38 HAS         1.5560    9.0150    3.8610 ha        1 36K      0.138000
     39 HAH1       -0.1560    8.8820    2.4550 h1        1 36K      0.046033
     40 HAH2       -1.4300    7.5570    2.4950 h1        1 36K      0.046033
     41 HAH3       -0.5320    8.0190    4.0330 h1        1 36K      0.046033
@<TRIPOS>BOND
     1    1    2 1   
     2    1   24 1   
     3    1   25 1   
     4    1   26 1   
     5    2    3 1   
     6    2   27 1   
     7    2   28 1   
     8    3    4 1   
     9    3   11 1   
    10    4    5 ar  
    11    4    9 ar  
    12    5    6 ar  
    13    5   29 1   
    14    6    7 ar  
    15    6   30 1   
    16    7    8 ar  
    17    7   31 1   
    18    8    9 ar  
    19    8   32 1   
    20    9   10 1   
    21   10   11 2   
    22   11   12 1   
    23   12   13 1   
    24   12   33 1   
    25   13   14 2   
    26   13   15 1   
    27   15   16 1   
    28   15   34 1   
    29   16   17 ar  
    30   16   21 ar  
    31   17   18 ar  
    32   17   35 1   
    33   18   19 ar  
    34   18   36 1   
    35   19   20 ar  
    36   19   37 1   
    37   20   21 ar  
    38   20   38 1   
    39   21   22 1   
    40   22   23 1   
    41   23   39 1   
    42   23   40 1   
    43   23   41 1   
@<TRIPOS>SUBSTRUCTURE
     1 36K         1 TEMP              0 ****  ****    0 ROOT
