@<TRIPOS>MOLECULE
36K
   41    36     1     0     0
SMALL
bcc


@<TRIPOS>ATOM
      1 CAF         2.2320   -2.0730   -2.6510 c3        1 36K     -0.239000
      2 CAE         0.7350   -2.2690   -2.7400 c3        1 36K     -0.006000
      3 NAD         0.1960   -2.4130   -1.4310 n3        1 36K     -0.158000
      4 CAC        -0.0170   -3.6180   -0.8470 c1        1 36K     -0.027000
      5 CAB         0.3000   -4.9300   -1.2480 c1        1 36K     -0.127167
      6 CAA        -0.0420   -6.0040   -0.4410 c1        1 36K     -0.127167
      7 CAI        -0.6960   -5.7860    0.7610 c1        1 36K     -0.127167
      8 CAJ        -1.0080   -4.4950    1.1570 c1        1 36K     -0.127167
      9 CAK        -0.6600   -3.4040    0.3370 c1        1 36K     -0.065000
     10 NAL        -0.8410   -2.0670    0.4780 n1        1 36K     -0.161000
     11 CAM        -0.3130   -1.4530   -0.6130 c1        1 36K      0.113000
     12 NAN        -0.5040   -0.0740   -0.8950 n2        1 36K     -0.277000
     13 CAO        -0.5320    0.8700    0.1660 c2        1 36K      0.377000
     14 OAT        -0.3920    0.4980    1.3130 o         1 36K     -0.366000
     15 NAP        -0.7990    2.2380   -0.1090 n         1 36K     -0.288000
     16 CAQ        -0.9030    3.1700    0.9580 c2        1 36K      0.030000
     17 CAU        -1.7480    2.9080    2.0260 c2        1 36K     -0.100000
     18 CAV        -1.9260    3.8580    3.0190 c1        1 36K     -0.143000
     19 CAW        -1.2590    5.0710    2.9450 c1        1 36K     -0.127167
     20 CAS        -0.4140    5.3330    1.8780 c1        1 36K     -0.127167
     21 CAR        -0.2360    4.3830    0.8850 c1        1 36K      0.041000
     22 OAG         0.5810    4.6690   -0.2220 os        1 36K     -0.233000
     23 CAH         1.9600    4.6860    0.0740 c3        1 36K     -0.070000
     24 HAF1        2.6870   -2.8480   -3.0410 hc        1 36K      0.092333
     25 HAF2        2.4930   -1.9790   -1.7110 hc        1 36K      0.092333
     26 HAF3        2.4850   -1.2640   -3.1430 hc        1 36K      0.092333
     27 HAE1        0.5420   -3.0750   -3.2630 h1        1 36K      0.100500
     28 HAE2        0.3290   -1.4920   -3.1770 h1        1 36K      0.100500
     29 HAB         0.7600   -5.0840   -2.0950 ha        1 36K      0.136833
     30 HAA         0.1770   -6.9130   -0.7200 ha        1 36K      0.136833
     31 HAI        -0.9370   -6.5420    1.3300 ha        1 36K      0.136833
     32 HAJ        -1.4680   -4.3410    2.0040 ha        1 36K      0.136833
     33 HAN        -0.6370    0.2010   -1.7550 hn        1 36K      0.235000
     34 HAP        -0.9170    2.5150   -0.9700 hn        1 36K      0.235000
     35 HAU        -2.2170    2.0540    2.0780 ha        1 36K      0.170000
     36 HAV        -2.5210    3.6740    3.7700 ha        1 36K      0.139000
     37 HAW        -1.3850    5.7410    3.6440 ha        1 36K      0.136833
     38 HAS         0.0550    6.1870    1.8260 ha        1 36K      0.136833
     39 HAH1        2.1400    5.3710    0.7530 h1        1 36K      0.085667
     40 HAH2        2.4670    4.8910   -0.7410 h1        1 36K      0.085667
     41 HAH3        2.2320    3.8070    0.4160 h1        1 36K      0.085667
@<TRIPOS>BOND
     1    1    2 1   
     2    1   24 1   
     3    1   25 1   
     4    1   26 1   
     5    2    3 1   
     6    2   27 1   
     7    2   28 1   
     8    3    4 1   
     9    3   11 1   
    10    4    9 1   
    11    5    6 1   
    12    5   29 1   
    13    6   30 1   
    14    7    8 1   
    15    7   31 1   
    16    8   32 1   
    17   10   11 1   
    18   12   13 1   
    19   12   33 1   
    20   13   14 1   
    21   13   15 1   
    22   15   16 1   
    23   15   34 1   
    24   16   17 1   
    25   16   21 1   
    26   17   18 1   
    27   17   35 1   
    28   18   36 1   
    29   19   20 1   
    30   19   37 1   
    31   20   38 1   
    32   21   22 1   
    33   22   23 1   
    34   23   39 1   
    35   23   40 1   
    36   23   41 1   
@<TRIPOS>SUBSTRUCTURE
     1 36K         1 TEMP              0 ****  ****    0 ROOT
