@<TRIPOS>MOLECULE
36M
   25    25     1     0     0
SMALL
bcc


@<TRIPOS>ATOM
      1 CAA         0.1180    0.0850   -0.0790 c3        1 36M     -0.093100
      2 CAH         1.6190    0.0650    0.0500 c3        1 36M     -0.086400
      3 CAI         2.0220    0.0020    1.5110 c3        1 36M      0.141400
      4 OAJ         3.4610   -0.0120    1.5250 os        1 36M     -0.442900
      5 CAK         4.0530   -0.0680    2.7600 c         1 36M      0.652700
      6 OAB         3.3170   -0.1020    3.7520 o         1 36M     -0.551000
      7 CAM         5.5190   -0.0810    2.7270 ca        1 36M     -0.173600
      8 CAF         6.2250   -0.0380    1.5160 ca        1 36M     -0.034000
      9 CAD         7.6140   -0.0510    1.5120 ca        1 36M     -0.205500
     10 CAL         8.3010   -0.1080    2.7380 ca        1 36M      0.158100
     11 OAC         9.6720   -0.1180    2.6690 oh        1 36M     -0.491100
     12 CAE         7.6040   -0.1520    3.9550 ca        1 36M     -0.205500
     13 CAG         6.2130   -0.1380    3.9440 ca        1 36M     -0.034000
     14 H1         -0.3120    0.9740    0.4420 hc        1 36M      0.037700
     15 H2         -0.3300   -0.8350    0.3690 hc        1 36M      0.037700
     16 H3         -0.1730    0.1310   -1.1560 hc        1 36M      0.037700
     17 H4          2.0440   -0.8200   -0.4910 hc        1 36M      0.052700
     18 H5          2.0610    0.9830   -0.4180 hc        1 36M      0.052700
     19 H6          1.6630    0.8970    2.0830 h1        1 36M      0.052700
     20 H7          1.6460   -0.9290    2.0090 h1        1 36M      0.052700
     21 H8          5.6690    0.0070    0.5650 ha        1 36M      0.158500
     22 H9          8.1830   -0.0170    0.5720 ha        1 36M      0.149000
     23 H10        10.0190   -0.1590    3.5730 ho        1 36M      0.425000
     24 H11         8.1510   -0.1970    4.9070 ha        1 36M      0.149000
     25 H12         5.6460   -0.1720    4.8880 ha        1 36M      0.158500
@<TRIPOS>BOND
     1    1    2 1   
     2    1   14 1   
     3    1   15 1   
     4    1   16 1   
     5    2    3 1   
     6    2   17 1   
     7    2   18 1   
     8    3    4 1   
     9    3   19 1   
    10    3   20 1   
    11    4    5 1   
    12    5    6 2   
    13    5    7 1   
    14    7    8 ar  
    15    7   13 ar  
    16    8    9 ar  
    17    8   21 1   
    18    9   10 ar  
    19    9   22 1   
    20   10   11 1   
    21   10   12 ar  
    22   11   23 1   
    23   12   13 ar  
    24   12   24 1   
    25   13   25 1   
@<TRIPOS>SUBSTRUCTURE
     1 36M         1 TEMP              0 ****  ****    0 ROOT
