@<TRIPOS>MOLECULE
36O
   31    33     1     0     0
SMALL
bcc


@<TRIPOS>ATOM
      1 C4         -0.0620    0.0080   -0.0110 ca        1 36O      0.451800
      2 C5          1.3970   -0.0110    0.0180 ca        1 36O     -0.230200
      3 C7          2.0290   -0.0760    1.3090 ca        1 36O      0.756200
      4 C13         5.5530   -0.6470    2.4810 c3        1 36O     -0.093900
      5 C15         6.3740    0.8460    4.3160 c3        1 36O     -0.080400
      6 C17         4.2660    1.4160    3.0910 c3        1 36O     -0.093900
      7 C1          0.8140    0.0780   -2.0790 cc        1 36O      0.398700
      8 N2         -0.4050    0.0650   -1.3660 na        1 36O     -0.379000
      9 N6          1.8990    0.0350   -1.2900 nd        1 36O     -0.541100
     10 N8          1.2330   -0.0840    2.4280 nb        1 36O     -0.789000
     11 C9         -0.1160   -0.0630    2.2480 ca        1 36O      0.684900
     12 N10        -0.8460   -0.0190    1.1100 nb        1 36O     -0.733000
     13 N11         3.4020   -0.1900    1.3790 nu        1 36O     -0.839900
     14 C12         4.1420   -0.0440    2.6180 c3        1 36O      0.218500
     15 C14         6.2800   -0.5770    3.8070 c3        1 36O     -0.074900
     16 C16         5.0020    1.4810    4.4120 c3        1 36O     -0.074900
     17 H2          6.1340   -0.0850    1.7030 hc        1 36O      0.048450
     18 H3          6.8630    0.8530    5.3240 hc        1 36O      0.040700
     19 H4          7.0180    1.4500    3.6240 hc        1 36O      0.040700
     20 H5          3.2450    1.8610    3.2110 hc        1 36O      0.048450
     21 H6          4.8160    2.0180    2.3220 hc        1 36O      0.048450
     22 H7          0.8300    0.1210   -3.1750 h5        1 36O      0.072800
     23 H8         -1.3170    0.0860   -1.7360 hn        1 36O      0.317700
     24 H10        -0.7060   -0.0810    3.1900 h5        1 36O      0.051100
     25 H11         3.9010    0.0170    0.5410 hn        1 36O      0.442800
     26 H12         3.5940   -0.6250    3.4190 h1        1 36O      0.084700
     27 H13         5.7440   -1.2100    4.5620 hc        1 36O      0.043950
     28 H14         7.3110   -1.0010    3.6840 hc        1 36O      0.043950
     29 H15         4.4010    0.9570    5.2010 hc        1 36O      0.043950
     30 H16         5.1050    2.5530    4.7250 hc        1 36O      0.043950
     31 H1          5.4820   -1.7150    2.1500 hc        1 36O      0.048450
@<TRIPOS>BOND
     1    1    2 ar  
     2    1    8 1   
     3    1   12 ar  
     4    2    3 ar  
     5    2    9 1   
     6    3   10 ar  
     7    3   13 1   
     8    4   14 1   
     9    4   15 1   
    10    4   17 1   
    11    4   31 1   
    12    5   15 1   
    13    5   16 1   
    14    5   18 1   
    15    5   19 1   
    16    6   14 1   
    17    6   16 1   
    18    6   20 1   
    19    6   21 1   
    20    7    8 1   
    21    7    9 2   
    22    7   22 1   
    23    8   23 1   
    24   10   11 ar  
    25   11   12 ar  
    26   11   24 1   
    27   13   14 1   
    28   13   25 1   
    29   14   26 1   
    30   15   27 1   
    31   15   28 1   
    32   16   29 1   
    33   16   30 1   
@<TRIPOS>SUBSTRUCTURE
     1 36O         1 TEMP              0 ****  ****    0 ROOT
