@<TRIPOS>MOLECULE
36O
   31    33     1     0     0
SMALL
bcc


@<TRIPOS>ATOM
      1 C4         -0.0620    0.0070   -0.0110 ca        1 36O      0.451800
      2 C5          1.3970   -0.0140    0.0180 ca        1 36O     -0.230200
      3 C7          2.0290   -0.0760    1.3090 ca        1 36O      0.756200
      4 C13         5.5530   -0.6480    2.4830 c3        1 36O     -0.093900
      5 C15         6.3730    0.8490    4.3160 c3        1 36O     -0.080400
      6 C17         4.2670    1.4170    3.0890 c3        1 36O     -0.093900
      7 C1          0.8160    0.0730   -2.0800 cc        1 36O      0.398700
      8 N2         -0.4040    0.0610   -1.3660 na        1 36O     -0.379000
      9 N6          1.9000    0.0300   -1.2900 nd        1 36O     -0.541100
     10 N8          1.2330   -0.0820    2.4280 nb        1 36O     -0.789000
     11 C9         -0.1160   -0.0600    2.2470 ca        1 36O      0.684900
     12 N10        -0.8460   -0.0180    1.1100 nb        1 36O     -0.733000
     13 N11         3.4020   -0.1910    1.3800 nh        1 36O     -0.839900
     14 C12         4.1420   -0.0440    2.6190 c3        1 36O      0.218500
     15 C14         6.2790   -0.5760    3.8100 c3        1 36O     -0.074900
     16 C16         5.0020    1.4840    4.4100 c3        1 36O     -0.074900
     17 H2          5.4800   -1.7170    2.1550 hc        1 36O      0.048450
     18 H3          7.0190    1.4500    3.6220 hc        1 36O      0.040700
     19 H4          6.8630    0.8580    5.3240 hc        1 36O      0.040700
     20 H5          3.2450    1.8630    3.2080 hc        1 36O      0.048450
     21 H6          4.8170    2.0180    2.3190 hc        1 36O      0.048450
     22 H7          0.8320    0.1130   -3.1750 h5        1 36O      0.072800
     23 H8         -1.3160    0.0830   -1.7370 hn        1 36O      0.317700
     24 H10        -0.7060   -0.0770    3.1900 h5        1 36O      0.051100
     25 H11         3.9010    0.0130    0.5410 hn        1 36O      0.442800
     26 H12         3.5930   -0.6230    3.4210 h1        1 36O      0.084700
     27 H13         7.3100   -1.0000    3.6870 hc        1 36O      0.043950
     28 H14         5.7430   -1.2070    4.5660 hc        1 36O      0.043950
     29 H15         4.4010    0.9620    5.2000 hc        1 36O      0.043950
     30 H16         5.1060    2.5570    4.7210 hc        1 36O      0.043950
     31 H1          6.1340   -0.0880    1.7050 hc        1 36O      0.048450
@<TRIPOS>BOND
     1    1    2 ar  
     2    1    8 1   
     3    1   12 ar  
     4    2    3 ar  
     5    2    9 1   
     6    3   10 ar  
     7    3   13 1   
     8    4   14 1   
     9    4   15 1   
    10    4   17 1   
    11    4   31 1   
    12    5   15 1   
    13    5   16 1   
    14    5   18 1   
    15    5   19 1   
    16    6   14 1   
    17    6   16 1   
    18    6   20 1   
    19    6   21 1   
    20    7    8 1   
    21    7    9 2   
    22    7   22 1   
    23    8   23 1   
    24   10   11 ar  
    25   11   12 ar  
    26   11   24 1   
    27   13   14 1   
    28   13   25 1   
    29   14   26 1   
    30   15   27 1   
    31   15   28 1   
    32   16   29 1   
    33   16   30 1   
@<TRIPOS>SUBSTRUCTURE
     1 36O         1 TEMP              0 ****  ****    0 ROOT
