@<TRIPOS>MOLECULE
36P
   33    36     1     0     0
SMALL
bcc


@<TRIPOS>ATOM
      1 CAO         0.2650    0.4240    0.0710 c3        1 36P      0.097000
      2 CAS         1.7990    0.6130    0.2220 c3        1 36P     -0.043100
      3 CAN         2.0660    0.2200    1.6370 ca        1 36P     -0.132300
      4 CAM         3.2610    0.1530    2.3240 ca        1 36P     -0.095000
      5 CAL         3.2510   -0.2550    3.6660 ca        1 36P     -0.156000
      6 CAB         2.0560   -0.5880    4.2940 ca        1 36P     -0.109000
      7 CAC         0.8310   -0.5280    3.6170 ca        1 36P     -0.138000
      8 CAD         0.8360   -0.1220    2.2820 ca        1 36P      0.057600
      9 NAE        -0.2490    0.0070    1.3790 n         1 36P     -0.360000
     10 CAF        -1.5830   -0.0260    1.7390 c         1 36P      0.609600
     11 OAA        -1.9360   -0.2900    2.9060 o         1 36P     -0.594100
     12 CAG        -2.6310    0.2670    0.7180 cc        1 36P      0.291800
     13 NAH        -2.5480   -0.1120   -0.6140 nc        1 36P     -0.619000
     14 CAP        -3.8200    0.9030    1.0770 cd        1 36P     -0.208400
     15 SAQ        -4.8300    1.0390   -0.2320 ss        1 36P     -0.051300
     16 CAI        -3.6740    0.2440   -1.2470 cd        1 36P      0.477900
     17 CAJ        -3.9540    0.0080   -2.6390 cd        1 36P     -0.176500
     18 CAK        -5.1170    0.5270   -3.3060 cd        1 36P     -0.143000
     19 CAR        -5.1460    0.1510   -4.6280 cc        1 36P     -0.173100
     20 SAU        -3.8220   -0.7880   -5.0330 ss        1 36P      0.060200
     21 CAT        -3.1680   -0.7350   -3.5060 cc        1 36P     -0.130100
     22 HAO1       -0.2250    1.3800   -0.2510 h1        1 36P      0.062200
     23 HAS1        2.0900    1.6750    0.0290 hc        1 36P      0.061200
     24 HAO2        0.0510   -0.3770   -0.6860 h1        1 36P      0.062200
     25 HAS2        2.3470   -0.0410   -0.4990 hc        1 36P      0.061200
     26 HAM         4.2080    0.4150    1.8310 ha        1 36P      0.133000
     27 HAL         4.1980   -0.3110    4.2210 ha        1 36P      0.131000
     28 HAB         2.0630   -0.9070    5.3470 ha        1 36P      0.133000
     29 HAC        -0.1080   -0.7920    4.1280 ha        1 36P      0.171000
     30 HAP        -4.0480    1.2390    2.0900 h4        1 36P      0.202000
     31 HAK        -5.8690    1.1420   -2.8050 ha        1 36P      0.156000
     32 HAT        -2.2370   -1.2310   -3.2300 h4        1 36P      0.190000
     33 HAR        -5.9220    0.4170   -5.3440 h4        1 36P      0.176000
@<TRIPOS>BOND
     1    1    2 1   
     2    1    9 1   
     3    1   22 1   
     4    1   24 1   
     5    2    3 1   
     6    2   23 1   
     7    2   25 1   
     8    3    4 ar  
     9    3    8 ar  
    10    4    5 ar  
    11    4   26 1   
    12    5    6 ar  
    13    5   27 1   
    14    6    7 ar  
    15    6   28 1   
    16    7    8 ar  
    17    7   29 1   
    18    8    9 1   
    19    9   10 1   
    20   10   11 2   
    21   10   12 1   
    22   12   13 1   
    23   12   14 2   
    24   13   16 2   
    25   14   15 1   
    26   14   30 1   
    27   15   16 1   
    28   16   17 1   
    29   17   18 1   
    30   17   21 2   
    31   18   19 2   
    32   18   31 1   
    33   19   20 1   
    34   19   33 1   
    35   20   21 1   
    36   21   32 1   
@<TRIPOS>SUBSTRUCTURE
     1 36P         1 TEMP              0 ****  ****    0 ROOT
