@<TRIPOS>MOLECULE
36P
   33    36     1     0     0
SMALL
bcc


@<TRIPOS>ATOM
      1 CAO         0.2650    0.4220    0.0710 c3        1 36P      0.097000
      2 CAS         1.8000    0.6100    0.2210 c3        1 36P     -0.043100
      3 CAN         2.0660    0.2220    1.6380 ca        1 36P     -0.132300
      4 CAM         3.2610    0.1570    2.3250 ca        1 36P     -0.095000
      5 CAL         3.2500   -0.2460    3.6680 ca        1 36P     -0.156000
      6 CAB         2.0540   -0.5760    4.2970 ca        1 36P     -0.109000
      7 CAC         0.8300   -0.5170    3.6200 ca        1 36P     -0.138000
      8 CAD         0.8350   -0.1160    2.2840 ca        1 36P      0.057600
      9 NAE        -0.2490    0.0110    1.3800 n         1 36P     -0.360000
     10 CAF        -1.5840   -0.0220    1.7390 c         1 36P      0.609600
     11 OAA        -1.9370   -0.2810    2.9070 o         1 36P     -0.594100
     12 CAG        -2.6310    0.2670    0.7180 cc        1 36P      0.291800
     13 NAH        -2.5470   -0.1130   -0.6140 nc        1 36P     -0.619000
     14 CAP        -3.8220    0.9020    1.0750 cd        1 36P     -0.208400
     15 SAQ        -4.8320    1.0340   -0.2340 ss        1 36P     -0.051300
     16 CAI        -3.6740    0.2410   -1.2480 cd        1 36P      0.477900
     17 CAJ        -3.9520    0.0020   -2.6390 cd        1 36P     -0.176500
     18 CAK        -5.1190    0.5150   -3.3070 cd        1 36P     -0.143000
     19 CAR        -5.1450    0.1380   -4.6290 cc        1 36P     -0.173100
     20 SAU        -3.8170   -0.7930   -5.0330 ss        1 36P      0.060200
     21 CAT        -3.1630   -0.7370   -3.5060 cc        1 36P     -0.130100
     22 HAO1       -0.2240    1.3770   -0.2550 h1        1 36P      0.062200
     23 HAS1        2.3480   -0.0480   -0.4970 hc        1 36P      0.061200
     24 HAO2        0.0500   -0.3820   -0.6840 h1        1 36P      0.062200
     25 HAS2        2.0920    1.6710    0.0240 hc        1 36P      0.061200
     26 HAM         4.2080    0.4160    1.8310 ha        1 36P      0.133000
     27 HAL         4.1970   -0.3010    4.2240 ha        1 36P      0.131000
     28 HAB         2.0610   -0.8910    5.3520 ha        1 36P      0.133000
     29 HAC        -0.1090   -0.7780    4.1320 ha        1 36P      0.171000
     30 HAP        -4.0510    1.2380    2.0880 h4        1 36P      0.202000
     31 HAK        -5.8740    1.1250   -2.8060 ha        1 36P      0.156000
     32 HAT        -2.2280   -1.2270   -3.2310 h4        1 36P      0.190000
     33 HAR        -5.9230    0.4000   -5.3450 h4        1 36P      0.176000
@<TRIPOS>BOND
     1    1    2 1   
     2    1    9 1   
     3    1   22 1   
     4    1   24 1   
     5    2    3 1   
     6    2   23 1   
     7    2   25 1   
     8    3    4 ar  
     9    3    8 ar  
    10    4    5 ar  
    11    4   26 1   
    12    5    6 ar  
    13    5   27 1   
    14    6    7 ar  
    15    6   28 1   
    16    7    8 ar  
    17    7   29 1   
    18    8    9 1   
    19    9   10 1   
    20   10   11 2   
    21   10   12 1   
    22   12   13 1   
    23   12   14 2   
    24   13   16 2   
    25   14   15 1   
    26   14   30 1   
    27   15   16 1   
    28   16   17 1   
    29   17   18 1   
    30   17   21 2   
    31   18   19 2   
    32   18   31 1   
    33   19   20 1   
    34   19   33 1   
    35   20   21 1   
    36   21   32 1   
@<TRIPOS>SUBSTRUCTURE
     1 36P         1 TEMP              0 ****  ****    0 ROOT
