@<TRIPOS>MOLECULE
36P
   33    29     1     0     0
SMALL
bcc


@<TRIPOS>ATOM
      1 CAO         0.5480   -0.8510   -3.5860 c3        1 36P     -0.030000
      2 CAS         2.0320   -0.8270   -3.5930 c3        1 36P     -0.130000
      3 CAN         2.4980   -0.8260   -2.1540 c2        1 36P     -0.121000
      4 CAM         3.7660   -0.9300   -1.5930 c2        1 36P     -0.091000
      5 CAL         3.9090   -1.0790   -0.2130 c1        1 36P     -0.155000
      6 CAB         2.7770   -1.1230    0.6070 c1        1 36P     -0.125500
      7 CAC         1.5040   -1.0180    0.0480 c1        1 36P     -0.125500
      8 CAD         1.3560   -0.8700   -1.3250 c1        1 36P      0.074000
      9 NAE         0.1200   -0.7320   -2.2070 n         1 36P     -0.266000
     10 CAF        -1.2350   -0.6590   -1.7390 c2        1 36P      0.392000
     11 OAA        -2.1650   -0.6950   -2.5370 o         1 36P     -0.333000
     12 CAG        -1.5050   -0.4690   -0.3050 c2        1 36P     -0.113000
     13 NAH        -1.5500    0.8870    0.4270 n2        1 36P     -0.080000
     14 CAP        -1.9380   -1.5070    0.6270 c1        1 36P     -0.431000
     15 SAQ        -2.2670   -0.8240    1.9690 ss        1 36P      0.519000
     16 CAI        -2.0090    0.6680    1.7930 c1        1 36P     -0.201000
     17 CAJ        -2.2870    1.7310    2.7980 c1        1 36P     -0.107500
     18 CAK        -3.7120    2.2620    3.2080 c1        1 36P     -0.107500
     19 CAR        -3.5410    3.2890    4.2280 c1        1 36P     -0.419500
     20 SAU        -2.0320    3.4430    4.4970 ss        1 36P      0.599000
     21 CAT        -1.2900    2.4490    3.5790 c1        1 36P     -0.419500
     22 HAO1        0.2010   -0.0570   -4.1220 h1        1 36P      0.104000
     23 HAS1        2.3890   -1.6780   -4.0670 hc        1 36P      0.103000
     24 HAO2        0.2370   -1.7110   -3.9470 h1        1 36P      0.104000
     25 HAS2        2.3260   -0.0370   -4.0120 hc        1 36P      0.103000
     26 HAM         4.5160   -0.9020   -2.1360 ha        1 36P      0.135000
     27 HAL         4.8070   -1.1510    0.1820 ha        1 36P      0.133000
     28 HAB         2.8780   -1.2270    1.5860 ha        1 36P      0.136500
     29 HAC         0.7710   -1.0480    0.5810 ha        1 36P      0.136500
     30 HAP        -2.0130   -2.5180    0.4200 DU        1 36P      0.179500
     31 HAK        -4.6190    1.9350    2.8180 DU        1 36P      0.179500
     32 HAT        -0.2640    2.3150    3.5310 DU        1 36P      0.179500
     33 HAR        -4.2090    3.7580    4.6370 DU        1 36P      0.179500
@<TRIPOS>BOND
     1    1    2 1   
     2    1    9 1   
     3    1   22 1   
     4    1   24 1   
     5    2    3 1   
     6    2   23 1   
     7    2   25 1   
     8    3    4 1   
     9    3    8 1   
    10    4    5 1   
    11    4   26 1   
    12    5   27 1   
    13    6    7 1   
    14    6   28 1   
    15    7   29 1   
    16    8    9 1   
    17    9   10 1   
    18   10   11 1   
    19   10   12 1   
    20   12   13 1   
    21   12   14 1   
    22   13   16 1   
    23   14   15 1   
    24   15   16 1   
    25   17   18 1   
    26   17   21 1   
    27   18   19 1   
    28   19   20 1   
    29   20   21 1   
@<TRIPOS>SUBSTRUCTURE
     1 36P         1 TEMP              0 ****  ****    0 ROOT
