@<TRIPOS>MOLECULE
36P
   33    36     1     0     0
SMALL
bcc


@<TRIPOS>ATOM
      1 CAO         1.3880   -1.2920   -0.3690 c3        1 36P      0.097000
      2 CAS         2.5420   -2.3020   -0.6160 c3        1 36P     -0.043100
      3 CAN         3.7690   -1.5320   -0.2530 ca        1 36P     -0.132300
      4 CAM         5.0900   -1.9310   -0.2390 ca        1 36P     -0.095000
      5 CAL         6.0730   -1.0110    0.1490 ca        1 36P     -0.156000
      6 CAB         5.7230    0.2840    0.5160 ca        1 36P     -0.109000
      7 CAC         4.3890    0.7120    0.5100 ca        1 36P     -0.138000
      8 CAD         3.4070   -0.2000    0.1230 ca        1 36P      0.057600
      9 NAE         2.0030   -0.0280    0.0460 n         1 36P     -0.360000
     10 CAF         1.3510    1.1890    0.1230 c         1 36P      0.609600
     11 OAA         1.9680    2.2420    0.3820 o         1 36P     -0.594100
     12 CAG        -0.1200    1.2560   -0.1170 cc        1 36P      0.291800
     13 NAH        -1.0190    0.2760    0.2770 nc        1 36P     -0.619000
     14 CAP        -0.6950    2.3780   -0.7160 cd        1 36P     -0.208400
     15 SAQ        -2.3450    2.2170   -0.7970 ss        1 36P     -0.051300
     16 CAI        -2.2630    0.6670   -0.0290 cd        1 36P      0.477900
     17 CAJ        -3.4590   -0.0880    0.2370 cd        1 36P     -0.176500
     18 CAK        -4.7600    0.3090   -0.2310 cd        1 36P     -0.143000
     19 CAR        -5.7290   -0.5830    0.1650 cc        1 36P     -0.173100
     20 SAU        -5.0830   -1.8390    1.0610 ss        1 36P      0.060200
     21 CAT        -3.5260   -1.2660    0.9630 cc        1 36P     -0.130100
     22 HAO1        0.7840   -1.1410   -1.3030 h1        1 36P      0.062200
     23 HAS1        2.4170   -3.2060    0.0290 hc        1 36P      0.061200
     24 HAO2        0.7190   -1.6690    0.4500 h1        1 36P      0.062200
     25 HAS2        2.5640   -2.6290   -1.6840 hc        1 36P      0.061200
     26 HAM         5.3700   -2.9540   -0.5280 ha        1 36P      0.133000
     27 HAL         7.1280   -1.3200    0.1630 ha        1 36P      0.131000
     28 HAB         6.5050    0.9970    0.8190 ha        1 36P      0.133000
     29 HAC         4.1280    1.7420    0.8000 ha        1 36P      0.171000
     30 HAP        -0.1270    3.2440   -1.0570 h4        1 36P      0.202000
     31 HAK        -4.9320    1.2100   -0.8250 ha        1 36P      0.156000
     32 HAT        -2.6700   -1.7630    1.4210 h4        1 36P      0.190000
     33 HAR        -6.7910   -0.5050   -0.0620 h4        1 36P      0.176000
@<TRIPOS>BOND
     1    1    2 1   
     2    1    9 1   
     3    1   22 1   
     4    1   24 1   
     5    2    3 1   
     6    2   23 1   
     7    2   25 1   
     8    3    4 ar  
     9    3    8 ar  
    10    4    5 ar  
    11    4   26 1   
    12    5    6 ar  
    13    5   27 1   
    14    6    7 ar  
    15    6   28 1   
    16    7    8 ar  
    17    7   29 1   
    18    8    9 1   
    19    9   10 1   
    20   10   11 2   
    21   10   12 1   
    22   12   13 1   
    23   12   14 2   
    24   13   16 2   
    25   14   15 1   
    26   14   30 1   
    27   15   16 1   
    28   16   17 1   
    29   17   18 1   
    30   17   21 2   
    31   18   19 2   
    32   18   31 1   
    33   19   20 1   
    34   19   33 1   
    35   20   21 1   
    36   21   32 1   
@<TRIPOS>SUBSTRUCTURE
     1 36P         1 TEMP              0 ****  ****    0 ROOT
