@<TRIPOS>MOLECULE
36P
   33    36     1     0     0
SMALL
bcc


@<TRIPOS>ATOM
      1 CAO         0.2600    0.4440    0.0730 c3        1 36P      0.097000
      2 CAS         1.7910    0.6570    0.2260 c3        1 36P     -0.043100
      3 CAN         2.0640    0.2600    1.6380 ca        1 36P     -0.132300
      4 CAM         3.2600    0.2080    2.3250 ca        1 36P     -0.095000
      5 CAL         3.2560   -0.2090    3.6640 ca        1 36P     -0.156000
      6 CAB         2.0670   -0.5640    4.2900 ca        1 36P     -0.109000
      7 CAC         0.8410   -0.5200    3.6140 ca        1 36P     -0.138000
      8 CAD         0.8400   -0.1060    2.2810 ca        1 36P      0.057600
      9 NAE        -0.2470    0.0120    1.3790 n         1 36P     -0.360000
     10 CAF        -1.5810   -0.0460    1.7380 c         1 36P      0.609600
     11 OAA        -1.9300   -0.3220    2.9040 o         1 36P     -0.594100
     12 CAG        -2.6330    0.2360    0.7190 cc        1 36P      0.291800
     13 NAH        -2.5440   -0.1310   -0.6160 nc        1 36P     -0.619000
     14 CAP        -3.8330    0.8500    1.0830 cd        1 36P     -0.208400
     15 SAQ        -4.8460    0.9780   -0.2260 ss        1 36P     -0.051300
     16 CAI        -3.6760    0.2100   -1.2460 cd        1 36P      0.477900
     17 CAJ        -3.9510   -0.0210   -2.6390 cd        1 36P     -0.176500
     18 CAK        -5.1250    0.4820   -3.3030 cd        1 36P     -0.143000
     19 CAR        -5.1460    0.1150   -4.6280 cc        1 36P     -0.173100
     20 SAU        -3.8060   -0.7950   -5.0400 ss        1 36P      0.060200
     21 CAT        -3.1520   -0.7420   -3.5120 cc        1 36P     -0.130100
     22 HAO1       -0.2450    1.3950   -0.2430 h1        1 36P      0.062200
     23 HAS1        2.0650    1.7240    0.0390 hc        1 36P      0.061200
     24 HAO2        0.0580   -0.3550   -0.6890 h1        1 36P      0.062200
     25 HAS2        2.3490    0.0160   -0.4990 hc        1 36P      0.061200
     26 HAM         4.2020    0.4880    1.8330 ha        1 36P      0.133000
     27 HAL         4.2050   -0.2530    4.2190 ha        1 36P      0.131000
     28 HAB         2.0790   -0.8900    5.3410 ha        1 36P      0.133000
     29 HAC        -0.0930   -0.8010    4.1230 ha        1 36P      0.171000
     30 HAP        -4.0670    1.1740    2.0980 h4        1 36P      0.202000
     31 HAK        -5.8880    1.0780   -2.7970 ha        1 36P      0.156000
     32 HAT        -2.2120   -1.2230   -3.2400 h4        1 36P      0.190000
     33 HAR        -5.9280    0.3720   -5.3420 h4        1 36P      0.176000
@<TRIPOS>BOND
     1    1    2 1   
     2    1    9 1   
     3    1   22 1   
     4    1   24 1   
     5    2    3 1   
     6    2   23 1   
     7    2   25 1   
     8    3    4 ar  
     9    3    8 ar  
    10    4    5 ar  
    11    4   26 1   
    12    5    6 ar  
    13    5   27 1   
    14    6    7 ar  
    15    6   28 1   
    16    7    8 ar  
    17    7   29 1   
    18    8    9 1   
    19    9   10 1   
    20   10   11 2   
    21   10   12 1   
    22   12   13 1   
    23   12   14 2   
    24   13   16 2   
    25   14   15 1   
    26   14   30 1   
    27   15   16 1   
    28   16   17 1   
    29   17   18 1   
    30   17   21 2   
    31   18   19 2   
    32   18   31 1   
    33   19   20 1   
    34   19   33 1   
    35   20   21 1   
    36   21   32 1   
@<TRIPOS>SUBSTRUCTURE
     1 36P         1 TEMP              0 ****  ****    0 ROOT
