@<TRIPOS>MOLECULE
36Q
   35    37     1     0     0
SMALL
bcc


@<TRIPOS>ATOM
      1 C4          0.0190    0.0750    0.0510 ca        1 36Q     -0.079300
      2 C5          1.4120    0.2080    0.0990 ca        1 36Q     -0.121500
      3 C6          2.0680    0.2920    1.3260 ca        1 36Q     -0.127500
      4 C7         -0.6840   -0.0020   -1.2560 c3        1 36Q     -0.043100
      5 C8         -0.9490   -1.4540   -1.7020 c3        1 36Q      0.228500
      6 C10        -1.8300   -1.4160   -2.9720 c3        1 36Q      0.097400
      7 N12         0.2850   -2.1870   -1.8750 nu        1 36Q     -0.826900
      8 C13         0.3320   -3.5630   -1.9440 ca        1 36Q      0.757200
      9 C15         1.5990   -5.6650   -2.2530 ca        1 36Q      0.450800
     10 C21        -0.5750   -5.7000   -1.6360 ca        1 36Q      0.684900
     11 C1          1.3390    0.2450    2.5140 ca        1 36Q     -0.130000
     12 C2         -0.0490    0.1120    2.4730 ca        1 36Q     -0.127500
     13 C3         -0.7060    0.0270    1.2470 ca        1 36Q     -0.121500
     14 O11        -1.1200   -0.7080   -3.9750 oh        1 36Q     -0.607800
     15 C14         1.5710   -4.2070   -2.2910 ca        1 36Q     -0.226200
     16 N16         2.9010   -6.0200   -2.6200 na        1 36Q     -0.379000
     17 C18         3.5860   -4.8080   -2.8590 cc        1 36Q      0.397700
     18 N19         2.8270   -3.7160   -2.6740 nd        1 36Q     -0.537100
     19 N20         0.5200   -6.4390   -1.9210 nb        1 36Q     -0.734000
     20 N22        -0.7500   -4.3500   -1.6330 nb        1 36Q     -0.799000
     21 H1          1.9900    0.2400   -0.8370 ha        1 36Q      0.130000
     22 H2          3.1630    0.3940    1.3550 ha        1 36Q      0.130500
     23 H3         -1.6820    0.5080   -1.1810 hc        1 36Q      0.063700
     24 H4         -0.0970    0.5300   -2.0520 hc        1 36Q      0.063700
     25 H5         -1.5570   -1.9660   -0.8970 h1        1 36Q      0.088700
     26 H6         -2.7880   -0.8800   -2.7370 h1        1 36Q      0.038200
     27 H7         -2.0650   -2.4570   -3.3170 h1        1 36Q      0.038200
     28 H8          1.0260   -1.6940   -2.3260 hn        1 36Q      0.452800
     29 H9         -1.4830   -6.2820   -1.3640 h5        1 36Q      0.050100
     30 H10         1.8580    0.3110    3.4820 ha        1 36Q      0.130000
     31 H11        -0.6260    0.0720    3.4080 ha        1 36Q      0.130500
     32 H12        -1.8010   -0.0800    1.2170 ha        1 36Q      0.130000
     33 H13        -1.6160   -0.8160   -4.7940 ho        1 36Q      0.405000
     34 H14         3.2590   -6.9350   -2.6880 hn        1 36Q      0.317700
     35 H15         4.6390   -4.8020   -3.1640 h5        1 36Q      0.072800
@<TRIPOS>BOND
     1    1    2 ar  
     2    1    4 1   
     3    1   13 ar  
     4    2    3 ar  
     5    2   21 1   
     6    3   11 ar  
     7    3   22 1   
     8    4    5 1   
     9    4   23 1   
    10    4   24 1   
    11    5    6 1   
    12    5    7 1   
    13    5   25 1   
    14    6   14 1   
    15    6   26 1   
    16    6   27 1   
    17    7    8 1   
    18    7   28 1   
    19    8   15 ar  
    20    8   20 ar  
    21    9   15 ar  
    22    9   16 1   
    23    9   19 ar  
    24   10   19 ar  
    25   10   20 ar  
    26   10   29 1   
    27   11   12 ar  
    28   11   30 1   
    29   12   13 ar  
    30   12   31 1   
    31   13   32 1   
    32   14   33 1   
    33   15   18 1   
    34   16   17 1   
    35   16   34 1   
    36   17   18 2   
    37   17   35 1   
@<TRIPOS>SUBSTRUCTURE
     1 36Q         1 TEMP              0 ****  ****    0 ROOT
