@<TRIPOS>MOLECULE
36Q
   35    37     1     0     0
SMALL
bcc


@<TRIPOS>ATOM
      1 C4          0.0200    0.0720    0.0490 ca        1 36Q     -0.079300
      2 C5          1.4130    0.2040    0.0980 ca        1 36Q     -0.121500
      3 C6          2.0680    0.2890    1.3250 ca        1 36Q     -0.127500
      4 C7         -0.6830   -0.0040   -1.2580 c3        1 36Q     -0.043100
      5 C8         -0.9480   -1.4560   -1.7040 c3        1 36Q      0.228500
      6 C10        -1.8270   -1.4180   -2.9750 c3        1 36Q      0.097400
      7 N12         0.2870   -2.1890   -1.8750 nh        1 36Q     -0.826900
      8 C13         0.3330   -3.5660   -1.9450 ca        1 36Q      0.757200
      9 C15         1.6010   -5.6680   -2.2530 ca        1 36Q      0.450800
     10 C21        -0.5740   -5.7030   -1.6390 ca        1 36Q      0.684900
     11 C1          1.3390    0.2420    2.5130 ca        1 36Q     -0.130000
     12 C2         -0.0490    0.1100    2.4710 ca        1 36Q     -0.127500
     13 C3         -0.7060    0.0250    1.2460 ca        1 36Q     -0.121500
     14 O11        -1.1170   -0.7100   -3.9770 oh        1 36Q     -0.607800
     15 C14         1.5730   -4.2090   -2.2910 ca        1 36Q     -0.226200
     16 N16         2.9040   -6.0220   -2.6190 na        1 36Q     -0.379000
     17 C18         3.5890   -4.8100   -2.8560 cc        1 36Q      0.397700
     18 N19         2.8300   -3.7190   -2.6720 nd        1 36Q     -0.537100
     19 N20         0.5220   -6.4420   -1.9230 nb        1 36Q     -0.734000
     20 N22        -0.7490   -4.3530   -1.6350 nb        1 36Q     -0.799000
     21 H1          1.9910    0.2360   -0.8370 ha        1 36Q      0.130000
     22 H2          3.1630    0.3900    1.3550 ha        1 36Q      0.130500
     23 H3         -0.0960    0.5280   -2.0540 hc        1 36Q      0.063700
     24 H4         -1.6810    0.5050   -1.1830 hc        1 36Q      0.063700
     25 H5         -1.5560   -1.9690   -0.8990 h1        1 36Q      0.088700
     26 H6         -2.7860   -0.8820   -2.7400 h1        1 36Q      0.038200
     27 H7         -2.0630   -2.4590   -3.3200 h1        1 36Q      0.038200
     28 H8          1.0280   -1.6970   -2.3260 hn        1 36Q      0.452800
     29 H9         -1.4820   -6.2850   -1.3680 h5        1 36Q      0.050100
     30 H10         1.8570    0.3080    3.4810 ha        1 36Q      0.130000
     31 H11        -0.6260    0.0710    3.4060 ha        1 36Q      0.130500
     32 H12        -1.8010   -0.0810    1.2160 ha        1 36Q      0.130000
     33 H13        -1.6120   -0.8180   -4.7970 ho        1 36Q      0.405000
     34 H14         3.2620   -6.9370   -2.6860 hn        1 36Q      0.317700
     35 H15         4.6420   -4.8040   -3.1610 h5        1 36Q      0.072800
@<TRIPOS>BOND
     1    1    2 ar  
     2    1    4 1   
     3    1   13 ar  
     4    2    3 ar  
     5    2   21 1   
     6    3   11 ar  
     7    3   22 1   
     8    4    5 1   
     9    4   23 1   
    10    4   24 1   
    11    5    6 1   
    12    5    7 1   
    13    5   25 1   
    14    6   14 1   
    15    6   26 1   
    16    6   27 1   
    17    7    8 1   
    18    7   28 1   
    19    8   15 ar  
    20    8   20 ar  
    21    9   15 ar  
    22    9   16 1   
    23    9   19 ar  
    24   10   19 ar  
    25   10   20 ar  
    26   10   29 1   
    27   11   12 ar  
    28   11   30 1   
    29   12   13 ar  
    30   12   31 1   
    31   13   32 1   
    32   14   33 1   
    33   15   18 1   
    34   16   17 1   
    35   16   34 1   
    36   17   18 2   
    37   17   35 1   
@<TRIPOS>SUBSTRUCTURE
     1 36Q         1 TEMP              0 ****  ****    0 ROOT
