@<TRIPOS>MOLECULE
36R
   16    17     1     0     0
SMALL
bcc


@<TRIPOS>ATOM
      1 C4          0.0530   -0.0100   -0.0660 ca        1 36R      0.098400
      2 C5          1.4480   -0.0020   -0.0480 ca        1 36R     -0.082000
      3 C6          2.0720    0.0060    1.2050 ca        1 36R      0.011400
      4 C1          1.3540    0.0040    2.4120 ca        1 36R     -0.123000
      5 C2         -0.0420   -0.0040    2.4190 ca        1 36R     -0.097000
      6 C3         -0.6630   -0.0100    1.1820 ca        1 36R      0.019100
      7 Cl7         3.7730    0.0170    1.2680 cl        1 36R     -0.092400
      8 N8         -0.8720   -0.0170   -1.1320 nc        1 36R     -0.611100
      9 C9         -2.0830   -0.0320   -0.5370 cd        1 36R      0.733500
     10 O10        -2.0310   -0.0160    0.9030 os        1 36R     -0.329700
     11 N11        -3.3510   -0.1410   -1.0660 nv        1 36R     -0.868800
     12 H1          2.0290   -0.0030   -0.9820 ha        1 36R      0.167000
     13 H2          1.8970    0.0100    3.3700 ha        1 36R      0.152000
     14 H3         -0.6140   -0.0070    3.3550 ha        1 36R      0.156000
     15 H4         -3.4420    0.1400   -2.0170 hn        1 36R      0.433800
     16 H5         -4.0860    0.1280   -0.4520 hn        1 36R      0.433800
@<TRIPOS>BOND
     1    1    2 ar  
     2    1    6 ar  
     3    1    8 1   
     4    2    3 ar  
     5    2   12 1   
     6    3    4 ar  
     7    3    7 1   
     8    4    5 ar  
     9    4   13 1   
    10    5    6 ar  
    11    5   14 1   
    12    6   10 1   
    13    8    9 2   
    14    9   10 1   
    15    9   11 1   
    16   11   15 1   
    17   11   16 1   
@<TRIPOS>SUBSTRUCTURE
     1 36R         1 TEMP              0 ****  ****    0 ROOT
