@<TRIPOS>MOLECULE
36S
   57    56     1     0     0
SMALL
bcc


@<TRIPOS>ATOM
      1 CAB         0.2260    0.4700   -0.6100 c1        1 36S     -0.003000
      2 OAS         1.5190    0.4730   -0.9220 os        1 36S     -0.133000
      3 CAV         2.3400   -0.2430   -0.0570 c2        1 36S      0.089000
      4 CAF         1.8060   -1.0750    1.0690 c3        1 36S     -0.139000
      5 CAD         3.0610   -1.7040    1.6940 c3        1 36S     -0.084000
      6 CAE         5.4940   -1.5060    1.0760 c1        1 36S      0.207000
      7 CAG         4.2280   -1.1890    0.8760 c2        1 36S     -0.375000
      8 CAW         3.6980   -0.2840   -0.1620 c2        1 36S     -0.055000
      9 CAX         4.5740    0.3930   -1.0880 c2        1 36S      0.067000
     10 NAR         5.6190   -0.3370   -1.7420 n3        1 36S     -0.243000
     11 CAU         4.5850    1.7090   -1.4730 c2        1 36S     -0.169000
     12 CL          3.5550    2.9350   -1.0290 cl        1 36S      0.076000
     13 CAZ         5.7730    1.9660   -2.3870 c3        1 36S      0.061000
     14 CAJ         5.4360    2.4710   -3.6820 c1        1 36S     -0.129000
     15 CAY         6.4190    0.5700   -2.4730 c2        1 36S      0.046000
     16 CAI         7.5170    0.2330   -3.1830 c2        1 36S     -0.306000
     17 CAH         8.2940    1.1840   -4.0070 c3        1 36S     -0.058000
     18 CAT         5.2220    2.8680   -4.7910 c1        1 36S     -0.176000
     19 CBA         5.0100    3.3560   -6.1180 c3        1 36S     -0.060000
     20 CAM        12.8680   -0.1190   -5.0040 c3        1 36S     -0.286000
     21 CAP         8.2840    0.8220   -5.4720 c2        1 36S     -0.186000
     22 CAL         5.2870    2.3050   -7.1810 c3        1 36S     -0.175000
     23 CAO         6.7050    1.7470   -7.1440 c3        1 36S     -0.088000
     24 NBB         6.9940    0.7320   -6.1140 n3        1 36S      0.005000
     25 CAN         6.1470   -0.1940   -5.7680 c2        1 36S      0.061000
     26 C1          9.4630    0.6170   -6.1220 c2        1 36S      0.055000
     27 H1          1.5380    1.8000   -3.0030 ha        1 36S      0.002750
     28 H2          1.1380    1.3350   -3.2900 ha        1 36S      0.002750
     29 H3         -0.2830    1.0850   -1.3980 ha        1 36S      0.051000
     30 H4          1.0950   -1.8500    0.6840 hc        1 36S      0.133500
     31 H5          1.2480   -0.4350    1.7990 hc        1 36S      0.133500
     32 H6          3.1710   -1.3940    2.7630 hc        1 36S      0.112500
     33 H7          3.0140   -2.8200    1.6470 hc        1 36S      0.112500
     34 H8          6.0590   -1.0840   -1.2480 hn        1 36S      0.241000
     35 H9          6.4890    2.6780   -1.8770 hc        1 36S      0.158000
     36 H10         7.9360   -0.7850   -3.1180 ha        1 36S      0.146000
     37 H11         7.9120    2.2370   -3.8930 hc        1 36S      0.123000
     38 H12         5.6700    4.2540   -6.2930 hc        1 36S      0.129000
     39 H13        12.2440    0.4200   -4.2570 hc        1 36S      0.071500
     40 H14         3.9430    3.7050   -6.2290 hc        1 36S      0.129000
     41 H15        12.7840   -1.2150   -4.8350 hc        1 36S      0.071500
     42 H16        13.9290    0.1910   -4.8850 hc        1 36S      0.071500
     43 H17        12.5240    0.1250   -6.0360 hc        1 36S      0.071500
     44 H18         7.4290    2.5990   -6.9840 h1        1 36S      0.138000
     45 H19         4.5210    1.4890   -7.1190 hc        1 36S      0.117500
     46 H20         5.1660    2.7900   -8.1900 hc        1 36S      0.117500
     47 H22         6.9300    1.2620   -8.1390 h1        1 36S      0.138000
     48 H23         9.3640    1.1800   -3.6540 hc        1 36S      0.123000
     49 H24         5.1380   -0.2510   -6.2270 h4        1 36S      0.202000
     50 H25         6.4140   -0.9430   -4.9890 h4        1 36S      0.202000
     51 N1          9.6570    0.2830   -7.4660 n3        1 36S     -0.205000
     52 C3         10.9000    0.1810   -7.9220 c1        1 36S     -0.063000
     53 H21         8.8300    0.1250   -8.0130 hn        1 36S      0.161000
     54 H26        11.5910   -2.1190   -7.5980 ha        1 36S      0.002750
     55 H27        10.9870   -0.0950   -8.9940 ha        1 36S      0.073000
     56 H28        11.9780   -1.8190   -7.1270 ha        1 36S      0.002750
     57 H121       10.4230    0.7120   -5.5520 h4        1 36S      0.228000
@<TRIPOS>BOND
     1    1    2 1   
     2    1   29 1   
     3    2    3 1   
     4    3    4 1   
     5    3    8 1   
     6    4    5 1   
     7    4   30 1   
     8    4   31 1   
     9    5    7 1   
    10    5   32 1   
    11    5   33 1   
    12    6    7 1   
    13    7    8 1   
    14    8    9 1   
    15    9   10 1   
    16    9   11 1   
    17   10   15 1   
    18   10   34 1   
    19   11   12 1   
    20   11   13 1   
    21   13   14 1   
    22   13   15 1   
    23   13   35 1   
    24   14   18 1   
    25   15   16 1   
    26   16   17 1   
    27   16   36 1   
    28   17   21 1   
    29   17   37 1   
    30   17   48 1   
    31   18   19 1   
    32   19   22 1   
    33   19   38 1   
    34   19   40 1   
    35   20   39 1   
    36   20   41 1   
    37   20   42 1   
    38   20   43 1   
    39   21   24 1   
    40   21   26 1   
    41   22   23 1   
    42   22   45 1   
    43   22   46 1   
    44   23   24 1   
    45   23   44 1   
    46   23   47 1   
    47   24   25 1   
    48   25   49 1   
    49   25   50 1   
    50   26   51 1   
    51   26   57 1   
    52   27   28 1   
    53   51   52 1   
    54   51   53 1   
    55   52   55 1   
    56   54   56 1   
@<TRIPOS>SUBSTRUCTURE
     1 36S         1 TEMP              0 ****  ****    0 ROOT
