@<TRIPOS>MOLECULE
36U
   37    37     1     0     0
SMALL
bcc


@<TRIPOS>ATOM
      1 C4          0.4170   -1.9160    0.2870 c2        1 36U     -0.510000
      2 C14         2.7970   -1.5000    1.0670 c3        1 36U     -0.101000
      3 C6         -0.1470   -1.0700   -2.2310 c2        1 36U     -0.245000
      4 C11        -0.1450   -0.1680   -3.2710 c2        1 36U     -0.151000
      5 C7         -0.7160   -2.4250   -2.4480 c3        1 36U     -0.140000
      6 C8         -1.2160   -2.6900   -3.8160 c2        1 36U     -0.098000
      7 C9         -1.1750   -1.7540   -4.7890 c2        1 36U     -0.189000
      8 C10        -0.6440   -0.4420   -4.5690 c1        1 36U     -0.055000
      9 C13         1.7450   -2.4870    0.6010 c2        1 36U      0.298000
     10 C3         -0.7190   -3.4460    1.9510 c3        1 36U     -0.248000
     11 C2         -0.6980   -2.3970    0.9010 c2        1 36U      0.177000
     12 S5          0.4910   -0.5880   -0.7670 ss        1 36U      0.507000
     13 CL1         0.5020    1.3860   -2.9960 cl        1 36U     -0.006000
     14 C15         2.5840   -1.0950    2.4210 c1        1 36U     -0.108000
     15 C16         2.4210   -0.7470    3.5560 c1        1 36U     -0.118000
     16 C17         2.9990    3.3530    5.7410 c2        1 36U     -0.120000
     17 CL2         3.0150    5.0360    5.8650 cl        1 36U     -0.012000
     18 C19         3.8880    2.5680    6.3680 c2        1 36U     -0.148000
     19 C20         3.8880    1.1220    6.2740 c2        1 36U     -0.025000
     20 C21         3.0530    0.4060    5.5700 c1        1 36U     -0.153000
     21 C22         2.2260   -0.3420    4.8850 c2        1 36U      0.084000
     22 CL3         0.7740   -0.9030    5.6120 cl        1 36U     -0.018000
     23 O2          2.0130   -3.6830    0.4520 o         1 36U     -0.281000
     24 H1          2.7730   -0.5970    0.3880 hc        1 36U      0.140500
     25 H2          3.8140   -1.9780    0.9720 hc        1 36U      0.140500
     26 H3          0.0670   -3.1990   -2.1940 hc        1 36U      0.140500
     27 H4         -1.5710   -2.5710   -1.7210 hc        1 36U      0.140500
     28 H5         -1.6230   -3.7000   -3.9810 ha        1 36U      0.130000
     29 H6         -1.5540   -1.9680   -5.8030 ha        1 36U      0.149000
     30 H7          0.2390   -4.0250    1.9650 hc        1 36U      0.120000
     31 H8         -1.5600   -4.1620    1.7730 hc        1 36U      0.120000
     32 H9         -2.5920   -2.2010    1.1310 ho        1 36U      0.236000
     33 H10        -0.8610   -2.9670    2.9540 hc        1 36U      0.120000
     34 H11         2.1920    2.9740    5.0980 h4        1 36U      0.160000
     35 H12         4.6820    2.9960    7.0050 ha        1 36U      0.148000
     36 H13         4.6780    0.6080    6.8570 ha        1 36U      0.155000
     37 O1         -1.9080   -1.8730    0.5260 oh        1 36U     -0.244000
@<TRIPOS>BOND
     1    1    9 1   
     2    1   11 1   
     3    1   12 1   
     4    2    9 1   
     5    2   14 1   
     6    2   24 1   
     7    2   25 1   
     8    3    4 1   
     9    3    5 1   
    10    3   12 1   
    11    4    8 1   
    12    4   13 1   
    13    5    6 1   
    14    5   26 1   
    15    5   27 1   
    16    6    7 1   
    17    6   28 1   
    18    7    8 1   
    19    7   29 1   
    20    9   23 1   
    21   10   11 1   
    22   10   30 1   
    23   10   31 1   
    24   10   33 1   
    25   11   37 1   
    26   14   15 1   
    27   15   21 1   
    28   16   17 1   
    29   16   18 1   
    30   16   34 1   
    31   18   19 1   
    32   18   35 1   
    33   19   20 1   
    34   19   36 1   
    35   20   21 1   
    36   21   22 1   
    37   32   37 1   
@<TRIPOS>SUBSTRUCTURE
     1 36U         1 TEMP              0 ****  ****    0 ROOT
