@<TRIPOS>MOLECULE
36V
   39    41     1     0     0
SMALL
bcc


@<TRIPOS>ATOM
      1 C4          0.0180   -0.0640    0.0490 ca        1 36V     -0.088300
      2 C14        -1.2960    1.3740   -1.4920 c3        1 36V     -0.179900
      3 C5          1.4050   -0.1990    0.1820 ca        1 36V     -0.121500
      4 C6          1.9830   -0.2960    1.4480 ca        1 36V     -0.125500
      5 C11        -2.9000    0.3220   -3.1680 c3        1 36V     -0.306600
      6 C7         -0.5880    0.0390   -1.3150 c3        1 36V     -0.003400
      7 C8         -1.5510   -1.1130   -1.5680 c3        1 36V     -0.179900
      8 C9         -2.1890   -0.9940   -2.9240 c         1 36V      0.583100
      9 C12        -1.9770    1.4710   -2.8290 c         1 36V      0.583100
     10 C3         -0.7800   -0.0270    1.1990 ca        1 36V     -0.121500
     11 C1          1.1830   -0.2580    2.5890 ca        1 36V     -0.123000
     12 C2         -0.2000   -0.1240    2.4620 ca        1 36V     -0.125500
     13 O10        -2.1530   -1.9090   -3.7450 o         1 36V     -0.485600
     14 O13        -1.8270    2.4490   -3.5620 o         1 36V     -0.485600
     15 S15        -3.5830    0.3000   -4.8080 ss        1 36V      0.096000
     16 C16        -4.7940    1.4640   -4.8220 ca        1 36V      0.023900
     17 C17        -5.0530    2.3700   -3.7780 ca        1 36V     -0.163000
     18 C18        -6.0880    3.2920   -3.8480 ca        1 36V     -0.063000
     19 C19        -6.9090    3.3500   -4.9780 ca        1 36V     -0.160000
     20 C20        -6.6780    2.4870   -6.0400 ca        1 36V     -0.044000
     21 C21        -5.6300    1.5520   -5.9650 ca        1 36V     -0.192200
     22 N22        -5.4090    0.6480   -7.1160 no        1 36V      0.310200
     23 O23        -6.1510    0.7010   -8.0600 o         1 36V     -0.201500
     24 O24        -4.4830   -0.1240   -7.0770 o         1 36V     -0.201500
     25 H2         -2.0730    1.5080   -0.6930 hc        1 36V      0.080700
     26 H3          2.0440   -0.2300   -0.7130 ha        1 36V      0.131500
     27 H4          3.0740   -0.4020    1.5430 ha        1 36V      0.136000
     28 H5         -3.7420    0.3650   -2.4190 h1        1 36V      0.110700
     29 H6          0.2360   -0.0230   -2.0840 hc        1 36V      0.071700
     30 H7         -2.3610   -1.1220   -0.7910 hc        1 36V      0.080700
     31 H8         -1.0000   -2.0890   -1.4980 hc        1 36V      0.080700
     32 H9         -1.8720    0.0780    1.1070 ha        1 36V      0.131500
     33 H10         1.6400   -0.3350    3.5860 ha        1 36V      0.136000
     34 H11        -0.8350   -0.0950    3.3600 ha        1 36V      0.136000
     35 H12        -4.3980    2.3740   -2.8930 ha        1 36V      0.136000
     36 H13        -6.2590    3.9860   -3.0110 ha        1 36V      0.142000
     37 H14        -7.7280    4.0820   -5.0320 ha        1 36V      0.149000
     38 H15        -7.3110    2.5280   -6.9440 ha        1 36V      0.171000
     39 H1         -0.5530    2.2100   -1.3890 hc        1 36V      0.080700
@<TRIPOS>BOND
     1    1    3 ar  
     2    1    6 1   
     3    1   10 ar  
     4    2    6 1   
     5    2    9 1   
     6    2   25 1   
     7    2   39 1   
     8    3    4 ar  
     9    3   26 1   
    10    4   11 ar  
    11    4   27 1   
    12    5    8 1   
    13    5    9 1   
    14    5   15 1   
    15    5   28 1   
    16    6    7 1   
    17    6   29 1   
    18    7    8 1   
    19    7   30 1   
    20    7   31 1   
    21    8   13 2   
    22    9   14 2   
    23   10   12 ar  
    24   10   32 1   
    25   11   12 ar  
    26   11   33 1   
    27   12   34 1   
    28   15   16 1   
    29   16   17 ar  
    30   16   21 ar  
    31   17   18 ar  
    32   17   35 1   
    33   18   19 ar  
    34   18   36 1   
    35   19   20 ar  
    36   19   37 1   
    37   20   21 ar  
    38   20   38 1   
    39   21   22 1   
    40   22   23 1   
    41   22   24 1   
@<TRIPOS>SUBSTRUCTURE
     1 36V         1 TEMP              0 ****  ****    0 ROOT
