@<TRIPOS>MOLECULE
36V
   39    41     1     0     0
SMALL
bcc


@<TRIPOS>ATOM
      1 C4          0.0110   -0.0660    0.0530 ca        1 36V     -0.088300
      2 C14        -1.2960    1.3730   -1.4920 c3        1 36V     -0.179900
      3 C5          1.3970   -0.2080    0.1880 ca        1 36V     -0.121500
      4 C6          1.9740   -0.3040    1.4540 ca        1 36V     -0.125500
      5 C11        -2.9030    0.3230   -3.1660 c3        1 36V     -0.306600
      6 C7         -0.5940    0.0350   -1.3110 c3        1 36V     -0.003400
      7 C8         -1.5620   -1.1130   -1.5610 c3        1 36V     -0.179900
      8 C9         -2.1980   -0.9950   -2.9180 c         1 36V      0.583100
      9 C12        -1.9750    1.4700   -2.8300 c         1 36V      0.583100
     10 C3         -0.7880   -0.0220    1.2020 ca        1 36V     -0.121500
     11 C1          1.1730   -0.2590    2.5950 ca        1 36V     -0.123000
     12 C2         -0.2090   -0.1180    2.4660 ca        1 36V     -0.125500
     13 O10        -2.1660   -1.9130   -3.7360 o         1 36V     -0.485600
     14 O13        -1.8210    2.4440   -3.5660 o         1 36V     -0.485600
     15 S15        -3.5870    0.2990   -4.8060 ss        1 36V      0.096000
     16 C16        -4.7930    1.4690   -4.8240 ca        1 36V      0.023900
     17 C17        -5.0470    2.3800   -3.7820 ca        1 36V     -0.163000
     18 C18        -6.0770    3.3060   -3.8550 ca        1 36V     -0.063000
     19 C19        -6.8980    3.3650   -4.9850 ca        1 36V     -0.160000
     20 C20        -6.6730    2.4970   -6.0440 ca        1 36V     -0.044000
     21 C21        -5.6290    1.5570   -5.9660 ca        1 36V     -0.192200
     22 N22        -5.4120    0.6490   -7.1140 no        1 36V      0.310200
     23 O23        -6.1550    0.7010   -8.0580 o         1 36V     -0.201500
     24 O24        -4.4900   -0.1280   -7.0730 o         1 36V     -0.201500
     25 H2         -0.5490    2.2060   -1.3910 hc        1 36V      0.080700
     26 H3          2.0360   -0.2450   -0.7070 ha        1 36V      0.131500
     27 H4          3.0640   -0.4150    1.5510 ha        1 36V      0.136000
     28 H5         -3.7460    0.3730   -2.4170 h1        1 36V      0.110700
     29 H6          0.2310   -0.0320   -2.0800 hc        1 36V      0.071700
     30 H7         -1.0150   -2.0910   -1.4880 hc        1 36V      0.080700
     31 H8         -2.3720   -1.1160   -0.7850 hc        1 36V      0.080700
     32 H9         -1.8790    0.0880    1.1100 ha        1 36V      0.131500
     33 H10         1.6290   -0.3350    3.5930 ha        1 36V      0.136000
     34 H11        -0.8440   -0.0830    3.3640 ha        1 36V      0.136000
     35 H12        -4.3920    2.3840   -2.8970 ha        1 36V      0.136000
     36 H13        -6.2450    4.0050   -3.0200 ha        1 36V      0.142000
     37 H14        -7.7140    4.1000   -5.0410 ha        1 36V      0.149000
     38 H15        -7.3060    2.5380   -6.9470 ha        1 36V      0.171000
     39 H1         -2.0730    1.5130   -0.6940 hc        1 36V      0.080700
@<TRIPOS>BOND
     1    1    3 ar  
     2    1    6 1   
     3    1   10 ar  
     4    2    6 1   
     5    2    9 1   
     6    2   25 1   
     7    2   39 1   
     8    3    4 ar  
     9    3   26 1   
    10    4   11 ar  
    11    4   27 1   
    12    5    8 1   
    13    5    9 1   
    14    5   15 1   
    15    5   28 1   
    16    6    7 1   
    17    6   29 1   
    18    7    8 1   
    19    7   30 1   
    20    7   31 1   
    21    8   13 2   
    22    9   14 2   
    23   10   12 ar  
    24   10   32 1   
    25   11   12 ar  
    26   11   33 1   
    27   12   34 1   
    28   15   16 1   
    29   16   17 ar  
    30   16   21 ar  
    31   17   18 ar  
    32   17   35 1   
    33   18   19 ar  
    34   18   36 1   
    35   19   20 ar  
    36   19   37 1   
    37   20   21 ar  
    38   20   38 1   
    39   21   22 1   
    40   22   23 1   
    41   22   24 1   
@<TRIPOS>SUBSTRUCTURE
     1 36V         1 TEMP              0 ****  ****    0 ROOT
