@<TRIPOS>MOLECULE
36V
   39    41     1     0     0
SMALL
bcc


@<TRIPOS>ATOM
      1 C4          0.0190   -0.0570    0.0500 ca        1 36V     -0.088300
      2 C14        -1.2990    1.3780   -1.4900 c3        1 36V     -0.179900
      3 C5          1.4060   -0.1860    0.1850 ca        1 36V     -0.121500
      4 C6          1.9830   -0.2830    1.4510 ca        1 36V     -0.125500
      5 C11        -2.8960    0.3220   -3.1690 c3        1 36V     -0.306600
      6 C7         -0.5860    0.0450   -1.3140 c3        1 36V     -0.003400
      7 C8         -1.5430   -1.1110   -1.5710 c3        1 36V     -0.179900
      8 C9         -2.1800   -0.9910   -2.9270 c         1 36V      0.583100
      9 C12        -1.9790    1.4740   -2.8280 c         1 36V      0.583100
     10 C3         -0.7810   -0.0260    1.1990 ca        1 36V     -0.121500
     11 C1          1.1810   -0.2510    2.5910 ca        1 36V     -0.123000
     12 C2         -0.2020   -0.1220    2.4630 ca        1 36V     -0.125500
     13 O10        -2.1390   -1.9050   -3.7500 o         1 36V     -0.485600
     14 O13        -1.8330    2.4540   -3.5590 o         1 36V     -0.485600
     15 S15        -3.5790    0.2990   -4.8100 ss        1 36V      0.096000
     16 C16        -4.7940    1.4590   -4.8240 ca        1 36V      0.023900
     17 C17        -5.0580    2.3620   -3.7780 ca        1 36V     -0.163000
     18 C18        -6.0960    3.2790   -3.8480 ca        1 36V     -0.063000
     19 C19        -6.9160    3.3370   -4.9780 ca        1 36V     -0.160000
     20 C20        -6.6820    2.4750   -6.0410 ca        1 36V     -0.044000
     21 C21        -5.6300    1.5440   -5.9660 ca        1 36V     -0.192200
     22 N22        -5.4040    0.6430   -7.1190 no        1 36V      0.310200
     23 O23        -6.1460    0.6940   -8.0630 o         1 36V     -0.201500
     24 O24        -4.4750   -0.1250   -7.0800 o         1 36V     -0.201500
     25 H2         -2.0780    1.5070   -0.6910 hc        1 36V      0.080700
     26 H3          2.0460   -0.2130   -0.7100 ha        1 36V      0.131500
     27 H4          3.0740   -0.3850    1.5480 ha        1 36V      0.136000
     28 H5         -3.7400    0.3600   -2.4210 h1        1 36V      0.110700
     29 H6          0.2400   -0.0110   -2.0830 hc        1 36V      0.071700
     30 H7         -0.9870   -2.0840   -1.5020 hc        1 36V      0.080700
     31 H8         -2.3540   -1.1240   -0.7940 hc        1 36V      0.080700
     32 H9         -1.8730    0.0750    1.1060 ha        1 36V      0.131500
     33 H10         1.6370   -0.3270    3.5890 ha        1 36V      0.136000
     34 H11        -0.8380   -0.0970    3.3600 ha        1 36V      0.136000
     35 H12        -4.4040    2.3670   -2.8920 ha        1 36V      0.136000
     36 H13        -6.2710    3.9720   -3.0100 ha        1 36V      0.142000
     37 H14        -7.7390    4.0650   -5.0310 ha        1 36V      0.149000
     38 H15        -7.3150    2.5150   -6.9450 ha        1 36V      0.171000
     39 H1         -0.5610    2.2170   -1.3840 hc        1 36V      0.080700
@<TRIPOS>BOND
     1    1    3 ar  
     2    1    6 1   
     3    1   10 ar  
     4    2    6 1   
     5    2    9 1   
     6    2   25 1   
     7    2   39 1   
     8    3    4 ar  
     9    3   26 1   
    10    4   11 ar  
    11    4   27 1   
    12    5    8 1   
    13    5    9 1   
    14    5   15 1   
    15    5   28 1   
    16    6    7 1   
    17    6   29 1   
    18    7    8 1   
    19    7   30 1   
    20    7   31 1   
    21    8   13 2   
    22    9   14 2   
    23   10   12 ar  
    24   10   32 1   
    25   11   12 ar  
    26   11   33 1   
    27   12   34 1   
    28   15   16 1   
    29   16   17 ar  
    30   16   21 ar  
    31   17   18 ar  
    32   17   35 1   
    33   18   19 ar  
    34   18   36 1   
    35   19   20 ar  
    36   19   37 1   
    37   20   21 ar  
    38   20   38 1   
    39   21   22 1   
    40   22   23 1   
    41   22   24 1   
@<TRIPOS>SUBSTRUCTURE
     1 36V         1 TEMP              0 ****  ****    0 ROOT
