@<TRIPOS>MOLECULE
36X
   30    32     1     0     0
SMALL
bcc


@<TRIPOS>ATOM
      1 N1          0.0570   -0.4870    0.0940 n2        1 36X     -0.816100
      2 C6          1.3270   -0.2440    0.0300 cc        1 36X      0.573900
      3 C5          2.1620   -0.1790    1.2300 cc        1 36X     -0.274800
      4 C4          1.6880   -0.3840    2.6290 c3        1 36X     -0.020700
      5 C3          2.9410   -0.2320    3.5040 c3        1 36X     -0.078900
      6 C2          4.1180    0.0840    2.5710 c3        1 36X     -0.040200
      7 C1          3.5120    0.0820    1.1900 cd        1 36X      0.103300
      8 C7          2.1200   -0.0040   -1.1770 cc        1 36X     -0.274800
      9 C11         3.4720    0.2510   -1.1550 cd        1 36X      0.103300
     10 N           4.2110    0.3380    0.0160 na        1 36X     -0.495200
     11 C           5.6420    0.4330   -0.0000 c3        1 36X      0.204100
     12 C10         4.0230    0.4520   -2.5430 c3        1 36X     -0.040200
     13 C9          2.8090    0.2740   -3.4650 c3        1 36X     -0.078900
     14 C8          1.5910   -0.0060   -2.5710 c3        1 36X     -0.020700
     15 H1         -0.4000   -0.5050   -0.7940 hn        1 36X      0.372400
     16 H3          1.2280   -1.3980    2.7460 hc        1 36X      0.057700
     17 H4          3.1390   -1.1730    4.0720 hc        1 36X      0.046950
     18 H5          4.5660    1.0810    2.8070 hc        1 36X      0.055200
     19 H6          6.1110   -0.5870   -0.0690 h1        1 36X      0.048033
     20 H7          5.9690    1.0420   -0.8840 h1        1 36X      0.048033
     21 H9          4.4670    1.4740   -2.6520 hc        1 36X      0.055200
     22 H10         4.8200   -0.3000   -2.7680 hc        1 36X      0.055200
     23 H11         2.6450    1.1960   -4.0730 hc        1 36X      0.046950
     24 H12         2.9800   -0.5760   -4.1700 hc        1 36X      0.046950
     25 H13         0.8080    0.7830   -2.7020 hc        1 36X      0.057700
     26 H14         1.1270   -0.9930   -2.8210 hc        1 36X      0.057700
     27 H16         0.9090    0.3740    2.8970 hc        1 36X      0.057700
     28 H17         2.8040    0.5930    4.2460 hc        1 36X      0.046950
     29 H18         4.9230   -0.6880    2.6530 hc        1 36X      0.055200
     30 H2          5.9950    0.9310    0.9420 h1        1 36X      0.048033
@<TRIPOS>BOND
     1    1    2 2   
     2    1   15 1   
     3    2    3 1   
     4    2    8 1   
     5    3    4 1   
     6    3    7 2   
     7    4    5 1   
     8    4   16 1   
     9    4   27 1   
    10    5    6 1   
    11    5   17 1   
    12    5   28 1   
    13    6    7 1   
    14    6   18 1   
    15    6   29 1   
    16    7   10 1   
    17    8    9 2   
    18    8   14 1   
    19    9   10 1   
    20    9   12 1   
    21   10   11 1   
    22   11   19 1   
    23   11   20 1   
    24   11   30 1   
    25   12   13 1   
    26   12   21 1   
    27   12   22 1   
    28   13   14 1   
    29   13   23 1   
    30   13   24 1   
    31   14   25 1   
    32   14   26 1   
@<TRIPOS>SUBSTRUCTURE
     1 36X         1 TEMP              0 ****  ****    0 ROOT
