@<TRIPOS>MOLECULE
36X
   30    32     1     0     0
SMALL
bcc


@<TRIPOS>ATOM
      1 N1          0.0580   -0.4940    0.1050 n2        1 36X     -0.816100
      2 C6          1.3270   -0.2480    0.0360 cc        1 36X      0.573900
      3 C5          2.1660   -0.1790    1.2340 cc        1 36X     -0.274800
      4 C4          1.6980   -0.3830    2.6340 c3        1 36X     -0.020700
      5 C3          2.9530   -0.2260    3.5050 c3        1 36X     -0.078900
      6 C2          4.1260    0.0910    2.5670 c3        1 36X     -0.040200
      7 C1          3.5150    0.0850    1.1890 cd        1 36X      0.103300
      8 C7          2.1160   -0.0080   -1.1740 cc        1 36X     -0.274800
      9 C11         3.4680    0.2500   -1.1560 cd        1 36X      0.103300
     10 N           4.2110    0.3410    0.0110 na        1 36X     -0.495200
     11 C           5.6410    0.4390   -0.0090 c3        1 36X      0.204100
     12 C10         4.0140    0.4500   -2.5470 c3        1 36X     -0.040200
     13 C9          2.7970    0.2670   -3.4640 c3        1 36X     -0.078900
     14 C8          1.5830   -0.0140   -2.5660 c3        1 36X     -0.020700
     15 H1         -0.4010   -0.5150   -0.7820 hn        1 36X      0.372400
     16 H3          1.2410   -1.3970    2.7550 hc        1 36X      0.057700
     17 H4          2.8160    0.5990    4.2460 hc        1 36X      0.046950
     18 H5          4.5720    1.0900    2.8010 hc        1 36X      0.055200
     19 H6          5.9960    0.9390    0.9310 h1        1 36X      0.048033
     20 H7          5.9630    1.0490   -0.8950 h1        1 36X      0.048033
     21 H9          4.8120   -0.3000   -2.7730 hc        1 36X      0.055200
     22 H10         4.4550    1.4730   -2.6590 hc        1 36X      0.055200
     23 H11         2.6290    1.1880   -4.0740 hc        1 36X      0.046950
     24 H12         2.9680   -0.5840   -4.1680 hc        1 36X      0.046950
     25 H13         1.1200   -1.0020   -2.8130 hc        1 36X      0.057700
     26 H14         0.7970    0.7730   -2.6960 hc        1 36X      0.057700
     27 H16         0.9170    0.3730    2.9030 hc        1 36X      0.057700
     28 H17         3.1550   -1.1660    4.0730 hc        1 36X      0.046950
     29 H18         4.9330   -0.6790    2.6480 hc        1 36X      0.055200
     30 H2          6.1120   -0.5790   -0.0790 h1        1 36X      0.048033
@<TRIPOS>BOND
     1    1    2 2   
     2    1   15 1   
     3    2    3 1   
     4    2    8 1   
     5    3    4 1   
     6    3    7 2   
     7    4    5 1   
     8    4   16 1   
     9    4   27 1   
    10    5    6 1   
    11    5   17 1   
    12    5   28 1   
    13    6    7 1   
    14    6   18 1   
    15    6   29 1   
    16    7   10 1   
    17    8    9 2   
    18    8   14 1   
    19    9   10 1   
    20    9   12 1   
    21   10   11 1   
    22   11   19 1   
    23   11   20 1   
    24   11   30 1   
    25   12   13 1   
    26   12   21 1   
    27   12   22 1   
    28   13   14 1   
    29   13   23 1   
    30   13   24 1   
    31   14   25 1   
    32   14   26 1   
@<TRIPOS>SUBSTRUCTURE
     1 36X         1 TEMP              0 ****  ****    0 ROOT
