@<TRIPOS>MOLECULE
36X
   30    32     1     0     0
SMALL
bcc


@<TRIPOS>ATOM
      1 N1          0.0320   -0.2620   -0.1180 n2        1 36X     -0.816100
      2 C6          1.3130   -0.0920   -0.0470 cc        1 36X      0.573900
      3 C5          2.1330   -0.0540    1.1650 cc        1 36X     -0.274800
      4 C4          1.6240   -0.2140    2.5570 c3        1 36X     -0.020700
      5 C3          2.8650   -0.1160    3.4560 c3        1 36X     -0.078900
      6 C2          4.0750    0.1230    2.5420 c3        1 36X     -0.040200
      7 C1          3.4970    0.1350    1.1510 cd        1 36X      0.103300
      8 C7          2.1350    0.0890   -1.2440 cc        1 36X     -0.274800
      9 C11         3.4970    0.2760   -1.1970 cd        1 36X      0.103300
     10 N           4.2240    0.3400   -0.0120 na        1 36X     -0.495200
     11 C           5.6580    0.3610   -0.0120 c3        1 36X      0.204100
     12 C10         4.0850    0.4310   -2.5760 c3        1 36X     -0.040200
     13 C9          2.8820    0.3010   -3.5200 c3        1 36X     -0.078900
     14 C8          1.6340    0.0960   -2.6480 c3        1 36X     -0.020700
     15 H1         -0.4140   -0.3760    0.7690 hn        1 36X      0.372400
     16 H3          0.8830    0.5880    2.8060 hc        1 36X      0.057700
     17 H4          3.0010   -1.0590    4.0400 hc        1 36X      0.046950
     18 H5          4.5720    1.0980    2.7760 hc        1 36X      0.055200
     19 H6          6.0740   -0.6800   -0.0880 h1        1 36X      0.048033
     20 H7          6.0270    0.8300    0.9380 h1        1 36X      0.048033
     21 H9          4.8480   -0.3620   -2.7750 hc        1 36X      0.055200
     22 H10         4.5810    1.4280   -2.6880 hc        1 36X      0.055200
     23 H11         3.0240   -0.5660   -4.2100 hc        1 36X      0.046950
     24 H12         2.7780    1.2210   -4.1440 hc        1 36X      0.046950
     25 H13         1.1210   -0.8700   -2.8890 hc        1 36X      0.057700
     26 H14         0.8910    0.9190   -2.7990 hc        1 36X      0.057700
     27 H16         1.1120   -1.2020    2.6840 hc        1 36X      0.057700
     28 H17         2.7570    0.7250    4.1830 hc        1 36X      0.046950
     29 H18         4.8350   -0.6910    2.6510 hc        1 36X      0.055200
     30 H2          6.0240    0.9620   -0.8860 h1        1 36X      0.048033
@<TRIPOS>BOND
     1    1    2 2   
     2    1   15 1   
     3    2    3 1   
     4    2    8 1   
     5    3    4 1   
     6    3    7 2   
     7    4    5 1   
     8    4   16 1   
     9    4   27 1   
    10    5    6 1   
    11    5   17 1   
    12    5   28 1   
    13    6    7 1   
    14    6   18 1   
    15    6   29 1   
    16    7   10 1   
    17    8    9 2   
    18    8   14 1   
    19    9   10 1   
    20    9   12 1   
    21   10   11 1   
    22   11   19 1   
    23   11   20 1   
    24   11   30 1   
    25   12   13 1   
    26   12   21 1   
    27   12   22 1   
    28   13   14 1   
    29   13   23 1   
    30   13   24 1   
    31   14   25 1   
    32   14   26 1   
@<TRIPOS>SUBSTRUCTURE
     1 36X         1 TEMP              0 ****  ****    0 ROOT
