@<TRIPOS>MOLECULE
36Z
   32    33     1     0     0
SMALL
bcc


@<TRIPOS>ATOM
      1 CAF         0.0390   -0.6670    0.0670 c3        1 36Z     -0.146400
      2 CAE         1.4310   -0.2500   -0.0780 cc        1 36Z      0.290000
      3 OAA         2.1640   -0.0580    1.1150 os        1 36Z     -0.116100
      4 NAB         3.4000    0.3040    0.8380 nc        1 36Z     -0.363300
      5 CAC         3.5570    0.3800   -0.5000 cd        1 36Z      0.336600
      6 CAG         4.8040    0.7440   -1.1970 c3        1 36Z     -0.134400
      7 CAD         2.2800    0.0260   -1.1420 cd        1 36Z     -0.283600
      8 CAH         1.9840   -0.0290   -2.5520 ca        1 36Z      0.023000
      9 CAM         1.1270   -1.0240   -3.0420 ca        1 36Z     -0.115000
     10 CAI         2.5330    0.9090   -3.4330 ca        1 36Z     -0.155000
     11 CAJ         2.2340    0.8680   -4.8140 ca        1 36Z      0.129600
     12 NAR         2.7060    1.8650   -5.6740 nv        1 36Z     -0.819200
     13 CAK         1.3790   -0.1490   -5.2950 ca        1 36Z     -0.135000
     14 CAL         0.8330   -1.0760   -4.4080 ca        1 36Z     -0.092600
     15 CAN        -0.0720   -2.1360   -4.8810 c         1 36Z      0.643700
     16 OAO        -0.6960   -2.9590   -4.2040 o         1 36Z     -0.542000
     17 OAP        -0.2180   -2.1920   -6.2430 os        1 36Z     -0.438900
     18 CAQ        -1.0920   -3.2030   -6.7470 c3        1 36Z      0.127700
     19 H1         -0.5590   -0.3080   -0.8080 hc        1 36Z      0.071367
     20 H2         -0.4010   -0.2570    1.0100 hc        1 36Z      0.071367
     21 H3         -0.0210   -1.7860    0.1060 hc        1 36Z      0.071367
     22 H4          4.8430    0.2320   -2.1910 hc        1 36Z      0.059033
     23 H5          5.7060    0.4480   -0.6040 hc        1 36Z      0.059033
     24 H6          4.8380    1.8520   -1.3590 hc        1 36Z      0.059033
     25 H7          0.6860   -1.7690   -2.3590 ha        1 36Z      0.158000
     26 H8          3.1890    1.6990   -3.0340 ha        1 36Z      0.142000
     27 H9          3.5340    2.3210   -5.3640 hn        1 36Z      0.393800
     28 H10         2.7340    1.6020   -6.6340 hn        1 36Z      0.393800
     29 H11         1.1280   -0.2140   -6.3670 ha        1 36Z      0.157000
     30 H12        -0.7150   -4.2130   -6.4540 h1        1 36Z      0.051700
     31 H13        -2.1230   -3.0490   -6.3490 h1        1 36Z      0.051700
     32 H14        -1.0520   -3.0550   -7.8540 h1        1 36Z      0.051700
@<TRIPOS>BOND
     1    1    2 1   
     2    1   19 1   
     3    1   20 1   
     4    1   21 1   
     5    2    3 1   
     6    2    7 2   
     7    3    4 1   
     8    4    5 2   
     9    5    6 1   
    10    5    7 1   
    11    6   22 1   
    12    6   23 1   
    13    6   24 1   
    14    7    8 1   
    15    8    9 ar  
    16    8   10 ar  
    17    9   14 ar  
    18    9   25 1   
    19   10   11 ar  
    20   10   26 1   
    21   11   12 1   
    22   11   13 ar  
    23   12   27 1   
    24   12   28 1   
    25   13   14 ar  
    26   13   29 1   
    27   14   15 1   
    28   15   16 2   
    29   15   17 1   
    30   17   18 1   
    31   18   30 1   
    32   18   31 1   
    33   18   32 1   
@<TRIPOS>SUBSTRUCTURE
     1 36Z         1 TEMP              0 ****  ****    0 ROOT
