@<TRIPOS>MOLECULE
370
   52    56     1     0     0
SMALL
bcc


@<TRIPOS>ATOM
      1 C           0.6750   -0.9950   -1.0880 c3        1 370     -0.126400
      2 N           2.0300   -1.1260    3.8950 nc        1 370     -0.360000
      3 O           0.3060   -1.9110    2.6960 os        1 370     -0.390800
      4 S          -1.8650   -3.9860    3.5910 ss        1 370      0.088500
      5 C1          1.9890   -0.5550   -0.5860 cc        1 370      0.328600
      6 N1          1.6290   -2.2400    4.4830 nc        1 370     -0.331000
      7 O1          1.5560   -5.3810    4.7740 os        1 370     -0.307900
      8 C2          2.2400   -0.0220    0.7430 cc        1 370     -0.279600
      9 N2          3.8720   -5.9440    8.2160 n3        1 370     -0.821200
     10 C3          1.2430    0.1920    1.7970 c3        1 370     -0.009400
     11 N3          4.1050   -0.0990   -0.4930 na        1 370     -0.016600
     12 C4          1.2600   -0.8880    2.8140 cd        1 370      0.464700
     13 N4          3.1560   -0.5800   -1.2940 nd        1 370     -0.513800
     14 C5          0.5870   -2.7550    3.7910 cd        1 370      0.550200
     15 C6         -0.2130   -3.9250    3.9790 cd        1 370     -0.197200
     16 C7          0.2400   -5.1250    4.5050 cc        1 370      0.168900
     17 C8          1.8430   -5.7320    6.1510 c3        1 370      0.144100
     18 C9          2.9200   -6.8090    6.0890 c3        1 370     -0.092900
     19 C10         3.4310   -7.1210    7.4940 c3        1 370      0.165800
     20 C11         2.8950   -4.8740    8.2530 c3        1 370      0.165800
     21 C12         2.3570   -4.4950    6.8750 c3        1 370     -0.092900
     22 C13        -0.8180   -6.1090    4.5940 ca        1 370     -0.115800
     23 C14        -0.7560   -7.4380    5.0400 ca        1 370     -0.077000
     24 C15        -1.9050   -8.2080    5.0280 ca        1 370     -0.138000
     25 C16        -3.1250   -7.6710    4.5720 ca        1 370     -0.107000
     26 C17        -3.2010   -6.3660    4.1170 ca        1 370     -0.103000
     27 C18        -2.0450   -5.5720    4.1180 ca        1 370     -0.068100
     28 C19         3.6210    0.2570    0.7730 cd        1 370     -0.061600
     29 C20         4.4540    0.8060    1.8540 c3        1 370     -0.044800
     30 H           0.0100   -0.1060   -1.2310 hc        1 370      0.052700
     31 HA          0.2010   -1.6780   -0.3390 hc        1 370      0.052700
     32 HB          0.7590   -1.5350   -2.0630 hc        1 370      0.052700
     33 H3          1.4370    1.1690    2.3230 hc        1 370      0.079200
     34 H3A         0.2150    0.2330    1.3410 hc        1 370      0.079200
     35 H8          0.9180   -6.1270    6.6520 h1        1 370      0.049700
     36 H9          3.7590   -6.4520    5.4370 hc        1 370      0.067950
     37 H9A         2.5030   -7.7420    5.6330 hc        1 370      0.067950
     38 H10         2.6160   -7.6770    8.0470 h1        1 370      0.028450
     39 H10A        4.3160   -7.8130    7.4100 h1        1 370      0.028450
     40 H11         2.0150   -5.1300    8.9160 h1        1 370      0.028450
     41 H11A        3.4060   -3.9740    8.6990 h1        1 370      0.028450
     42 H12         1.5320   -3.7490    6.9960 hc        1 370      0.067950
     43 H12A        3.1610   -4.0140    6.2580 hc        1 370      0.067950
     44 H14         0.2060   -7.8520    5.3790 ha        1 370      0.143000
     45 H15        -1.8740   -9.2520    5.3730 ha        1 370      0.137000
     46 H16        -4.0250   -8.3040    4.5770 ha        1 370      0.137000
     47 H17        -4.1530   -5.9520    3.7540 ha        1 370      0.141000
     48 H20         4.8560    1.8120    1.5740 hc        1 370      0.061367
     49 H20A        5.3160    0.1290    2.0800 hc        1 370      0.061367
     50 H20B        3.8360    0.9100    2.7820 hc        1 370      0.061367
     51 HN3         5.0470   -0.0550   -0.8010 hn        1 370      0.321700
     52 HN2         4.1410   -6.1960    9.1480 hn        1 370      0.363800
@<TRIPOS>BOND
     1    1    5 1   
     2    1   30 1   
     3    1   31 1   
     4    1   32 1   
     5    2    6 1   
     6    2   12 2   
     7    3   12 1   
     8    3   14 1   
     9    4   15 1   
    10    4   27 1   
    11    5    8 1   
    12    5   13 2   
    13    6   14 2   
    14    7   16 1   
    15    7   17 1   
    16    8   10 1   
    17    8   28 2   
    18    9   19 1   
    19    9   20 1   
    20    9   52 1   
    21   10   12 1   
    22   10   33 1   
    23   10   34 1   
    24   11   13 1   
    25   11   28 1   
    26   11   51 1   
    27   14   15 1   
    28   15   16 2   
    29   16   22 1   
    30   17   18 1   
    31   17   21 1   
    32   17   35 1   
    33   18   19 1   
    34   18   36 1   
    35   18   37 1   
    36   19   38 1   
    37   19   39 1   
    38   20   21 1   
    39   20   40 1   
    40   20   41 1   
    41   21   42 1   
    42   21   43 1   
    43   22   23 ar  
    44   22   27 ar  
    45   23   24 ar  
    46   23   44 1   
    47   24   25 ar  
    48   24   45 1   
    49   25   26 ar  
    50   25   46 1   
    51   26   27 ar  
    52   26   47 1   
    53   28   29 1   
    54   29   48 1   
    55   29   49 1   
    56   29   50 1   
@<TRIPOS>SUBSTRUCTURE
     1 370         1 TEMP              0 ****  ****    0 ROOT
