@<TRIPOS>MOLECULE
370
   52    56     1     0     0
SMALL
bcc


@<TRIPOS>ATOM
      1 C           0.6720   -0.9930   -1.0740 c3        1 370     -0.126400
      2 N           2.0060   -1.1180    3.9110 nc        1 370     -0.360000
      3 O           0.2990   -1.9150    2.6970 os        1 370     -0.390800
      4 S          -1.8580   -4.0160    3.5680 ss        1 370      0.088500
      5 C1          1.9800   -0.5390   -0.5680 cc        1 370      0.328600
      6 N1          1.6120   -2.2390    4.4920 nc        1 370     -0.331000
      7 O1          1.5680   -5.3810    4.7700 os        1 370     -0.307900
      8 C2          2.2220   -0.0040    0.7620 cc        1 370     -0.279600
      9 N2          3.8660   -5.9350    8.2260 n7        1 370     -0.821200
     10 C3          1.2210    0.2000    1.8130 c3        1 370     -0.009400
     11 N3          4.0910   -0.0610   -0.4690 na        1 370     -0.016600
     12 C4          1.2410   -0.8840    2.8260 cd        1 370      0.464700
     13 N4          3.1490   -0.5520   -1.2730 nd        1 370     -0.513800
     14 C5          0.5800   -2.7610    3.7910 cd        1 370      0.550200
     15 C6         -0.2090   -3.9400    3.9680 cd        1 370     -0.197200
     16 C7          0.2520   -5.1370    4.4930 cc        1 370      0.168900
     17 C8          1.8500   -5.7340    6.1480 c3        1 370      0.144100
     18 C9          2.9380   -6.8000    6.0900 c3        1 370     -0.092900
     19 C10         3.4420   -7.1120    7.4970 c3        1 370      0.165800
     20 C11         2.8780   -4.8740    8.2610 c3        1 370      0.165800
     21 C12         2.3460   -4.4960    6.8800 c3        1 370     -0.092900
     22 C13        -0.7960   -6.1320    4.5700 ca        1 370     -0.115800
     23 C14        -0.7240   -7.4630    5.0110 ca        1 370     -0.077000
     24 C15        -1.8650   -8.2440    4.9890 ca        1 370     -0.138000
     25 C16        -3.0870   -7.7180    4.5260 ca        1 370     -0.107000
     26 C17        -3.1730   -6.4120    4.0750 ca        1 370     -0.103000
     27 C18        -2.0260   -5.6060    4.0880 ca        1 370     -0.068100
     28 C19         3.6000    0.2900    0.7950 cd        1 370     -0.061600
     29 C20         4.4240    0.8480    1.8780 c3        1 370     -0.044800
     30 H           0.0010   -0.1100   -1.2240 hc        1 370      0.052700
     31 HA          0.7650   -1.5380   -2.0450 hc        1 370      0.052700
     32 HB          0.2000   -1.6750   -0.3230 hc        1 370      0.052700
     33 H3          0.1930    0.2360    1.3530 hc        1 370      0.079200
     34 H3A         1.4060    1.1770    2.3430 hc        1 370      0.079200
     35 H8          0.9250   -6.1400    6.6410 h1        1 370      0.049700
     36 H9          3.7780   -6.4330    5.4450 hc        1 370      0.067950
     37 H9A         2.5340   -7.7360    5.6270 hc        1 370      0.067950
     38 H10         4.3340   -7.7960    7.4170 h1        1 370      0.028450
     39 H10A        2.6280   -7.6790    8.0430 h1        1 370      0.028450
     40 H11         1.9960   -5.1410    8.9170 h1        1 370      0.028450
     41 H11A        3.3760   -3.9700    8.7140 h1        1 370      0.028450
     42 H12         1.5130   -3.7580    6.9980 hc        1 370      0.067950
     43 H12A        3.1490   -4.0040    6.2710 hc        1 370      0.067950
     44 H14         0.2390   -7.8680    5.3560 ha        1 370      0.143000
     45 H15        -1.8260   -9.2890    5.3300 ha        1 370      0.137000
     46 H16        -3.9810   -8.3600    4.5220 ha        1 370      0.137000
     47 H17        -4.1260   -6.0050    3.7080 ha        1 370      0.141000
     48 H20         3.8070    0.9320    2.8080 hc        1 370      0.061367
     49 H20A        5.3000    0.1870    2.0970 hc        1 370      0.061367
     50 H20B        4.8040    1.8640    1.6040 hc        1 370      0.061367
     51 HN3         5.0340   -0.0070   -0.7750 hn        1 370      0.321700
     52 HN2         4.1310   -6.1870    9.1600 hn        1 370      0.363800
@<TRIPOS>BOND
     1    1    5 1   
     2    1   30 1   
     3    1   31 1   
     4    1   32 1   
     5    2    6 1   
     6    2   12 2   
     7    3   12 1   
     8    3   14 1   
     9    4   15 1   
    10    4   27 1   
    11    5    8 1   
    12    5   13 2   
    13    6   14 2   
    14    7   16 1   
    15    7   17 1   
    16    8   10 1   
    17    8   28 2   
    18    9   19 1   
    19    9   20 1   
    20    9   52 1   
    21   10   12 1   
    22   10   33 1   
    23   10   34 1   
    24   11   13 1   
    25   11   28 1   
    26   11   51 1   
    27   14   15 1   
    28   15   16 2   
    29   16   22 1   
    30   17   18 1   
    31   17   21 1   
    32   17   35 1   
    33   18   19 1   
    34   18   36 1   
    35   18   37 1   
    36   19   38 1   
    37   19   39 1   
    38   20   21 1   
    39   20   40 1   
    40   20   41 1   
    41   21   42 1   
    42   21   43 1   
    43   22   23 ar  
    44   22   27 ar  
    45   23   24 ar  
    46   23   44 1   
    47   24   25 ar  
    48   24   45 1   
    49   25   26 ar  
    50   25   46 1   
    51   26   27 ar  
    52   26   47 1   
    53   28   29 1   
    54   29   48 1   
    55   29   49 1   
    56   29   50 1   
@<TRIPOS>SUBSTRUCTURE
     1 370         1 TEMP              0 ****  ****    0 ROOT
