@<TRIPOS>MOLECULE
371
   45    48     1     0     0
SMALL
bcc


@<TRIPOS>ATOM
      1 O1         -0.0610   -0.0530    0.1230 os        1 371     -0.212200
      2 C1          1.3020   -0.3320    0.0770 cc        1 371      0.148900
      3 C2          2.0120   -0.6100    1.2060 cd        1 371     -0.071100
      4 C3          1.3950   -0.6260    2.5420 c         1 371      0.573900
      5 C4         -0.7510   -0.3340    3.7600 ca        1 371     -0.051000
      6 C5         -2.1150   -0.0620    3.7690 ca        1 371     -0.092300
      7 C6         -2.7800    0.2060    2.5650 ca        1 371     -0.104000
      8 C7         -2.1010    0.2310    1.3340 ca        1 371      0.130600
      9 C8         -0.7010   -0.0560    1.3470 ca        1 371      0.144100
     10 C9         -0.0390   -0.3380    2.5520 ca        1 371     -0.205600
     11 O2          2.0710   -0.8660    3.5550 o         1 371     -0.553100
     12 C10         1.7910   -0.2790   -1.2990 ca        1 371     -0.056800
     13 C11         2.9140   -1.0250   -1.6820 ca        1 371     -0.084000
     14 C12         3.3810   -0.9710   -2.9930 ca        1 371     -0.181000
     15 C13         2.7220   -0.1740   -3.9330 ca        1 371      0.061100
     16 C14         1.5860    0.5760   -3.5560 ca        1 371      0.099100
     17 C15         1.1250    0.5240   -2.2380 ca        1 371     -0.103000
     18 C16        -2.8820   -0.0540    5.0370 c3        1 371     -0.054800
     19 O3          3.3580   -0.8900    1.1120 oh        1 371     -0.491100
     20 O4          0.8850    1.3620   -4.4400 oh        1 371     -0.494100
     21 O5          3.1120   -0.0670   -5.2510 oh        1 371     -0.513100
     22 C17        -3.7320    0.0920   -2.0450 c3        1 371     -0.062400
     23 C18        -2.7010   -0.3390   -0.9850 c3        1 371      0.204800
     24 N1         -2.7970    0.5450    0.1560 nh        1 371     -0.675900
     25 S1         -3.7760    1.8480   -0.0500 s6        1 371      1.450900
     26 C19        -4.3340    1.4200   -1.6310 c3        1 371     -0.308600
     27 O7         -3.0730    3.0560   -0.1200 o         1 371     -0.648800
     28 O6         -4.8530    1.8300    0.8510 o         1 371     -0.648800
     29 H4         -0.2050   -0.5490    4.6940 ha        1 371      0.164000
     30 H6         -3.8650    0.4210    2.5970 ha        1 371      0.173000
     31 H11         3.4370   -1.6570   -0.9470 ha        1 371      0.164000
     32 H12         4.2660   -1.5530   -3.2880 ha        1 371      0.141000
     33 H15         0.2450    1.1190   -1.9490 ha        1 371      0.167000
     34 H161       -2.2280   -0.3040    5.9080 hc        1 371      0.052033
     35 H162       -3.3310    0.9570    5.2100 hc        1 371      0.052033
     36 H163       -3.7130   -0.8010    4.9920 hc        1 371      0.052033
     37 HO3         3.7040   -0.9370    2.0220 ho        1 371      0.445000
     38 HO4         1.3670    1.3680   -5.2810 ho        1 371      0.438000
     39 HO5         3.9310   -0.5720   -5.3600 ho        1 371      0.433000
     40 H172       -3.2280    0.1730   -3.0410 hc        1 371      0.067200
     41 H181       -1.6610   -0.2930   -1.4200 h1        1 371      0.065700
     42 H182       -2.8930   -1.4010   -0.6680 h1        1 371      0.065700
     43 H191       -5.4530    1.3560   -1.6570 h1        1 371      0.126200
     44 H192       -4.0580    2.2120   -2.3750 h1        1 371      0.126200
     45 H171       -4.5280   -0.6900   -2.1350 hc        1 371      0.067200
@<TRIPOS>BOND
     1    1    2 1   
     2    1    9 1   
     3    2    3 2   
     4    2   12 1   
     5    3    4 1   
     6    3   19 1   
     7    4   10 1   
     8    4   11 2   
     9    5    6 ar  
    10    5   10 ar  
    11    5   29 1   
    12    6    7 ar  
    13    6   18 1   
    14    7    8 ar  
    15    7   30 1   
    16    8    9 ar  
    17    8   24 1   
    18    9   10 ar  
    19   12   13 ar  
    20   12   17 ar  
    21   13   14 ar  
    22   13   31 1   
    23   14   15 ar  
    24   14   32 1   
    25   15   16 ar  
    26   15   21 1   
    27   16   17 ar  
    28   16   20 1   
    29   17   33 1   
    30   18   34 1   
    31   18   35 1   
    32   18   36 1   
    33   19   37 1   
    34   20   38 1   
    35   21   39 1   
    36   22   23 1   
    37   22   26 1   
    38   22   40 1   
    39   22   45 1   
    40   23   24 1   
    41   23   41 1   
    42   23   42 1   
    43   24   25 1   
    44   25   26 1   
    45   25   27 2   
    46   25   28 2   
    47   26   43 1   
    48   26   44 1   
@<TRIPOS>SUBSTRUCTURE
     1 371         1 TEMP              0 ****  ****    0 ROOT
