@<TRIPOS>MOLECULE
371
   45    38     1     0     0
SMALL
bcc


@<TRIPOS>ATOM
      1 O1          0.3370    0.0990    0.0440 o         1 371     -0.122000
      2 C1          1.7080    0.0950    0.0410 c1        1 371      0.088000
      3 C2          2.4080    0.0830    1.2450 c1        1 371     -0.092000
      4 C3          1.7240    0.0750    2.4360 c2        1 371      0.294000
      5 C4         -0.3720    0.0710    3.6600 c1        1 371     -0.047000
      6 C5         -1.7610    0.0760    3.6610 c1        1 371     -0.088000
      7 C6         -2.4580    0.0880    2.4570 c1        1 371     -0.096000
      8 C7         -1.7660    0.0960    1.2530 c1        1 371      0.041000
      9 C8         -0.3580    0.0910    1.2500 c2        1 371      0.102000
     10 C9          0.3310    0.0790    2.4400 c1        1 371     -0.187000
     11 O2          2.3340    0.0190    3.4860 o         1 371     -0.312000
     12 C10         2.4830    0.0870   -1.1070 c1        1 371     -0.045000
     13 C11         2.9140    1.2830   -1.6600 c1        1 371     -0.138500
     14 C12         3.6690    1.2770   -2.8220 c1        1 371     -0.138500
     15 C13         3.9920    0.0750   -3.4320 c1        1 371      0.012000
     16 C14         3.5610   -1.1200   -2.8800 c1        1 371      0.057000
     17 C15         2.8060   -1.1140   -1.7170 c2        1 371     -0.090000
     18 C16        -2.5150    0.1140    4.9720 c3        1 371     -0.180000
     19 O3          3.8140    0.0230    1.2400 o         1 371     -0.242000
     20 O4          3.8380   -2.3350   -3.5300 o         1 371     -0.242000
     21 O5          4.8010    0.0670   -4.5850 oh        1 371     -0.267000
     22 C17        -3.3780   -0.6850   -2.1410 c3        1 371     -0.140000
     23 C18        -2.9790   -1.0520   -0.5240 c3        1 371     -0.031000
     24 N1         -2.4760    0.0360    0.0280 n2        1 371     -0.775000
     25 S1         -3.1610    1.3300   -0.7740 s4        1 371      2.024800
     26 C19        -3.9150    0.5580   -2.1670 c2        1 371     -0.847000
     27 O7         -2.1750    2.2970   -1.1680 o         1 371     -0.536900
     28 O6         -4.1580    1.9550    0.0490 o         1 371     -0.536900
     29 H4          0.1170    0.0630    4.5040 ha        1 371      0.165000
     30 H6         -3.4340    0.0910    2.4590 ha        1 371      0.171000
     31 H11         2.6870    2.1290   -1.2300 ha        1 371      0.146500
     32 H12         3.9720    2.1190   -3.2110 ha        1 371      0.146500
     33 H15         2.5030   -1.9560   -1.3270 ha        1 371      0.179000
     34 H161       -1.9820   -0.3230    5.6690 hc        1 371      0.091000
     35 H162       -2.6830    1.0460    5.2260 hc        1 371      0.091000
     36 H163       -3.3690   -0.3560    4.8710 hc        1 371      0.091000
     37 HO3         4.0840   -0.6370    1.7720 ho        1 371      0.240000
     38 HO4         4.6170   -2.6530   -3.2450 ho        1 371      0.240000
     39 HO5         5.5980    0.4110   -4.3910 ho        1 371      0.231000
     40 H171       -2.5700   -0.7090   -2.6950 hc        1 371      0.104500
     41 H172       -4.0300   -1.3350   -2.4770 hc        1 371      0.104500
     42 H181       -2.3160   -1.7720   -0.5020 h1        1 371      0.104500
     43 H182       -3.7850   -1.3280   -0.0380 h1        1 371      0.104500
     44 H191       -3.7700    0.9440   -3.0560 ha        1 371      0.164000
     45 H192       -4.8900    0.5980   -2.0830 ha        1 371      0.164000
@<TRIPOS>BOND
     1    1    9 1   
     2    2    3 1   
     3    3    4 1   
     4    4   10 1   
     5    4   11 1   
     6    5    6 1   
     7    5   29 1   
     8    6   18 1   
     9    7    8 1   
    10    7   30 1   
    11    8    9 1   
    12    9   10 1   
    13   12   17 1   
    14   13   14 1   
    15   13   31 1   
    16   14   32 1   
    17   15   16 1   
    18   15   21 1   
    19   16   17 1   
    20   17   33 1   
    21   18   34 1   
    22   18   35 1   
    23   18   36 1   
    24   19   37 1   
    25   20   38 1   
    26   21   39 1   
    27   22   23 1   
    28   22   26 1   
    29   22   40 1   
    30   22   41 1   
    31   23   24 1   
    32   23   42 1   
    33   23   43 1   
    34   24   25 1   
    35   25   27 1   
    36   25   28 1   
    37   26   44 1   
    38   26   45 1   
@<TRIPOS>SUBSTRUCTURE
     1 371         1 TEMP              0 ****  ****    0 ROOT
