@<TRIPOS>MOLECULE
371
   45    48     1     0     0
SMALL
bcc


@<TRIPOS>ATOM
      1 O1         -0.0590   -0.0510    0.1280 os        1 371     -0.212200
      2 C1          1.3050   -0.3230    0.0870 cc        1 371      0.148900
      3 C2          2.0140   -0.5910    1.2200 cd        1 371     -0.071100
      4 C3          1.3930   -0.6020    2.5540 c         1 371      0.573900
      5 C4         -0.7580   -0.3130    3.7640 ca        1 371     -0.051000
      6 C5         -2.1230   -0.0480    3.7680 ca        1 371     -0.092300
      7 C6         -2.7860    0.2100    2.5600 ca        1 371     -0.104000
      8 C7         -2.1030    0.2310    1.3310 ca        1 371      0.130600
      9 C8         -0.7020   -0.0490    1.3500 ca        1 371      0.144100
     10 C9         -0.0420   -0.3210    2.5580 ca        1 371     -0.205600
     11 O2          2.0670   -0.8330    3.5710 o         1 371     -0.553100
     12 C10         1.7980   -0.2760   -1.2880 ca        1 371     -0.056800
     13 C11         2.9260   -1.0190   -1.6640 ca        1 371     -0.084000
     14 C12         3.3970   -0.9700   -2.9740 ca        1 371     -0.181000
     15 C13         2.7360   -0.1830   -3.9200 ca        1 371      0.061100
     16 C14         1.5950    0.5640   -3.5510 ca        1 371      0.099100
     17 C15         1.1310    0.5180   -2.2330 ca        1 371     -0.103000
     18 C16        -2.8940   -0.0350    5.0330 c3        1 371     -0.054800
     19 O3          3.3610   -0.8660    1.1310 oh        1 371     -0.491100
     20 O4          0.8930    1.3410   -4.4410 oh        1 371     -0.494100
     21 O5          3.1300   -0.0820   -5.2370 oh        1 371     -0.513100
     22 C17        -3.7250    0.0640   -2.0520 c3        1 371     -0.062400
     23 C18        -2.6940   -0.3560   -0.9860 c3        1 371      0.204800
     24 N1         -2.7980    0.5350    0.1490 nh        1 371     -0.675900
     25 S1         -3.7830    1.8320   -0.0680 s6        1 371      1.450900
     26 C19        -4.3340    1.3910   -1.6470 c3        1 371     -0.308600
     27 O7         -3.0840    3.0420   -0.1430 o         1 371     -0.648800
     28 O6         -4.8620    1.8130    0.8310 o         1 371     -0.648800
     29 H4         -0.2140   -0.5200    4.7010 ha        1 371      0.164000
     30 H6         -3.8720    0.4200    2.5870 ha        1 371      0.173000
     31 H11         3.4500   -1.6440   -0.9230 ha        1 371      0.164000
     32 H12         4.2850   -1.5500   -3.2620 ha        1 371      0.141000
     33 H15         0.2470    1.1100   -1.9510 ha        1 371      0.167000
     34 H161       -2.2390   -0.2680    5.9090 hc        1 371      0.052033
     35 H162       -3.3560    0.9710    5.1940 hc        1 371      0.052033
     36 H163       -3.7150   -0.7940    4.9940 hc        1 371      0.052033
     37 HO3         3.7050   -0.9060    2.0420 ho        1 371      0.445000
     38 HO4         1.3780    1.3450   -5.2810 ho        1 371      0.438000
     39 HO5         3.9510   -0.5830   -5.3410 ho        1 371      0.433000
     40 H172       -4.5160   -0.7220   -2.1390 hc        1 371      0.067200
     41 H181       -1.6530   -0.3080   -1.4190 h1        1 371      0.065700
     42 H182       -2.8820   -1.4170   -0.6630 h1        1 371      0.065700
     43 H191       -4.0590    2.1800   -2.3960 h1        1 371      0.126200
     44 H192       -5.4520    1.3220   -1.6750 h1        1 371      0.126200
     45 H171       -3.2180    0.1410   -3.0460 hc        1 371      0.067200
@<TRIPOS>BOND
     1    1    2 1   
     2    1    9 1   
     3    2    3 2   
     4    2   12 1   
     5    3    4 1   
     6    3   19 1   
     7    4   10 1   
     8    4   11 2   
     9    5    6 ar  
    10    5   10 ar  
    11    5   29 1   
    12    6    7 ar  
    13    6   18 1   
    14    7    8 ar  
    15    7   30 1   
    16    8    9 ar  
    17    8   24 1   
    18    9   10 ar  
    19   12   13 ar  
    20   12   17 ar  
    21   13   14 ar  
    22   13   31 1   
    23   14   15 ar  
    24   14   32 1   
    25   15   16 ar  
    26   15   21 1   
    27   16   17 ar  
    28   16   20 1   
    29   17   33 1   
    30   18   34 1   
    31   18   35 1   
    32   18   36 1   
    33   19   37 1   
    34   20   38 1   
    35   21   39 1   
    36   22   23 1   
    37   22   26 1   
    38   22   40 1   
    39   22   45 1   
    40   23   24 1   
    41   23   41 1   
    42   23   42 1   
    43   24   25 1   
    44   25   26 1   
    45   25   27 2   
    46   25   28 2   
    47   26   43 1   
    48   26   44 1   
@<TRIPOS>SUBSTRUCTURE
     1 371         1 TEMP              0 ****  ****    0 ROOT
