@<TRIPOS>MOLECULE
371
   45    48     1     0     0
SMALL
bcc


@<TRIPOS>ATOM
      1 O1          0.4440   -4.4550   -1.2340 os        1 371     -0.205200
      2 C1          1.4980   -5.1690   -1.7910 cc        1 371      0.083900
      3 C2          1.5120   -6.5280   -1.8620 cd        1 371     -0.047100
      4 C3          0.3740   -7.3550   -1.4100 c         1 371      0.598900
      5 C4         -1.8710   -7.2210   -0.3580 ca        1 371     -0.050000
      6 C5         -2.9240   -6.4930    0.1860 ca        1 371     -0.095300
      7 C6         -2.8480   -5.0950    0.2430 ca        1 371     -0.099000
      8 C7         -1.7180   -4.3990   -0.2220 ca        1 371      0.123600
      9 C8         -0.6490   -5.1670   -0.7750 ca        1 371      0.142100
     10 C9         -0.7310   -6.5650   -0.8450 ca        1 371     -0.210600
     11 O2          0.3550   -8.5860   -1.4970 o         1 371     -0.505100
     12 C10         2.5650   -4.2700   -2.2290 ca        1 371     -0.069800
     13 C11         3.2270   -4.5110   -3.4410 ca        1 371     -0.118000
     14 C12         4.2480   -3.6650   -3.8650 ca        1 371     -0.174000
     15 C13         4.6060   -2.5650   -3.0800 ca        1 371      0.058100
     16 C14         3.9340   -2.3090   -1.8630 ca        1 371      0.107100
     17 C15         2.9120   -3.1660   -1.4390 ca        1 371     -0.098000
     18 C16        -4.1320   -7.1750    0.7070 c3        1 371     -0.054800
     19 O3          2.5430   -7.2580   -2.4010 oh        1 371     -0.465100
     20 O4          4.2310   -1.2360   -1.0590 oh        1 371     -0.488100
     21 O5          5.6020   -1.6760   -3.4210 oh        1 371     -0.511100
     22 C17        -1.5440   -0.7150   -0.9560 c3        1 371     -0.061400
     23 C18        -1.4690   -2.2120   -1.3160 c3        1 371      0.207800
     24 N1         -1.6680   -2.9990   -0.1190 nh        1 371     -0.677900
     25 S1         -1.8440   -2.1430    1.2690 s6        1 371      1.451900
     26 C19        -1.7550   -0.5760    0.5380 c3        1 371     -0.307600
     27 O7         -0.7700   -2.3030    2.1520 o         1 371     -0.649300
     28 O6         -3.1180   -2.3270    1.8290 o         1 371     -0.649300
     29 H4         -1.9100   -8.3220   -0.4170 ha        1 371      0.165000
     30 H6         -3.6940   -4.5340    0.6840 ha        1 371      0.169000
     31 H11         2.9290   -5.3650   -4.0700 ha        1 371      0.154000
     32 H12         4.7680   -3.8570   -4.8140 ha        1 371      0.144000
     33 H15         2.3890   -2.9640   -0.4910 ha        1 371      0.174000
     34 H161       -4.0570   -8.2830    0.5830 hc        1 371      0.051700
     35 H162       -4.2640   -6.9490    1.7950 hc        1 371      0.051700
     36 H163       -5.0430   -6.8190    0.1640 hc        1 371      0.051700
     37 HO3         3.3570   -6.7360   -2.3110 ho        1 371      0.420000
     38 HO4         4.9830   -0.7650   -1.4510 ho        1 371      0.440000
     39 HO5         5.9930   -1.9720   -4.2560 ho        1 371      0.434000
     40 H172       -2.3840   -0.2370   -1.5200 hc        1 371      0.065700
     41 H181       -2.2580   -2.4650   -2.0770 h1        1 371      0.063700
     42 H182       -0.4650   -2.4500   -1.7710 h1        1 371      0.063700
     43 H191       -0.9190    0.0210    0.9870 h1        1 371      0.124700
     44 H192       -2.6890    0.0090    0.7390 h1        1 371      0.124700
     45 H171       -0.5980   -0.2090   -1.2720 hc        1 371      0.065700
@<TRIPOS>BOND
     1    1    2 1   
     2    1    9 1   
     3    2    3 2   
     4    2   12 1   
     5    3    4 1   
     6    3   19 1   
     7    4   10 1   
     8    4   11 2   
     9    5    6 ar  
    10    5   10 ar  
    11    5   29 1   
    12    6    7 ar  
    13    6   18 1   
    14    7    8 ar  
    15    7   30 1   
    16    8    9 ar  
    17    8   24 1   
    18    9   10 ar  
    19   12   13 ar  
    20   12   17 ar  
    21   13   14 ar  
    22   13   31 1   
    23   14   15 ar  
    24   14   32 1   
    25   15   16 ar  
    26   15   21 1   
    27   16   17 ar  
    28   16   20 1   
    29   17   33 1   
    30   18   34 1   
    31   18   35 1   
    32   18   36 1   
    33   19   37 1   
    34   20   38 1   
    35   21   39 1   
    36   22   23 1   
    37   22   26 1   
    38   22   40 1   
    39   22   45 1   
    40   23   24 1   
    41   23   41 1   
    42   23   42 1   
    43   24   25 1   
    44   25   26 1   
    45   25   27 2   
    46   25   28 2   
    47   26   43 1   
    48   26   44 1   
@<TRIPOS>SUBSTRUCTURE
     1 371         1 TEMP              0 ****  ****    0 ROOT
