@<TRIPOS>MOLECULE
372
   31    26     1     0     0
SMALL
bcc


@<TRIPOS>ATOM
      1 N14        -3.6840    3.3970    2.4150 n1        1 372     -0.033000
      2 C13        -3.1390    2.5960    1.8330 c1        1 372     -0.145000
      3 C12        -2.4040    1.5320    1.0600 c2        1 372     -0.056000
      4 C7         -0.9250    1.8250    1.0970 c3        1 372     -0.074000
      5 C8         -0.4490    1.7680    2.4990 c1        1 372      0.305000
      6 O11        -0.6370    2.6500    3.3800 o         1 372     -0.312000
      7 N9          0.3410    0.5680    2.6530 n2        1 372     -0.286000
      8 C10         1.0850    0.1980    3.8140 c3        1 372     -0.064000
      9 C2         -0.1720    0.7070    0.4250 c1        1 372     -0.124000
     10 C1         -0.0210    0.3670   -0.9350 c1        1 372     -0.095000
     11 C3          0.2900   -0.1610    1.4190 c1        1 372      0.048000
     12 C4          0.9070   -1.3790    1.0630 c1        1 372     -0.136000
     13 C5          1.0590   -1.7210   -0.2890 c1        1 372     -0.149000
     14 C6          0.5940   -0.8470   -1.2910 c1        1 372      0.049000
     15 N15         0.9160   -1.6220   -2.4630 n2        1 372     -0.329000
     16 C16         0.5840   -1.1180   -3.7630 c2        1 372      0.310000
     17 O17         0.0320   -0.0360   -3.8730 o         1 372     -0.353000
     18 C18         0.9910   -1.8700   -4.9780 c3        1 372     -0.246000
     19 H1         -2.5800    0.6400    1.4690 ha        1 372      0.129000
     20 H2         -2.7110    1.5310    0.1330 ha        1 372      0.129000
     21 H3         -0.9020    2.7040    0.6550 hc        1 372      0.148000
     22 H4          2.0660    0.2110    3.6000 h1        1 372      0.090000
     23 H5          0.8360   -0.6610    4.0840 h1        1 372      0.090000
     24 H6          0.9040    0.8200    4.5220 h1        1 372      0.090000
     25 H7         -0.3510    0.9900   -1.6470 ha        1 372      0.179000
     26 H8          1.2390   -2.0050    1.7850 ha        1 372      0.144000
     27 H9          1.4860   -2.5630   -0.5330 ha        1 372      0.133000
     28 H10         1.4000   -2.4270   -2.3770 hn        1 372      0.229000
     29 H11         1.4210   -2.7070   -4.7120 hc        1 372      0.109333
     30 H12         0.1860   -2.0700   -5.5300 hc        1 372      0.109333
     31 H13         1.6360   -1.3170   -5.5150 hc        1 372      0.109333
@<TRIPOS>BOND
     1    1    2 1   
     2    3    4 1   
     3    3   19 1   
     4    3   20 1   
     5    4    5 1   
     6    4    9 1   
     7    4   21 1   
     8    5    6 1   
     9    7    8 1   
    10    7   11 1   
    11    8   22 1   
    12    8   23 1   
    13    8   24 1   
    14    9   10 1   
    15   10   25 1   
    16   11   12 1   
    17   12   26 1   
    18   13   14 1   
    19   13   27 1   
    20   15   16 1   
    21   15   28 1   
    22   16   17 1   
    23   16   18 1   
    24   18   29 1   
    25   18   30 1   
    26   18   31 1   
@<TRIPOS>SUBSTRUCTURE
     1 372         1 TEMP              0 ****  ****    0 ROOT
