@<TRIPOS>MOLECULE
372
   31    32     1     0     0
SMALL
bcc


@<TRIPOS>ATOM
      1 N14        -0.6090    2.7290    0.1910 n1        1 372     -0.358800
      2 C13        -0.2580    1.6260    0.0830 c1        1 372      0.207700
      3 C12         0.1590    0.2490   -0.0610 c3        1 372     -0.004300
      4 C7          1.6600    0.0820    0.0990 c3        1 372     -0.077400
      5 C8          2.0770   -0.0750    1.5830 c         1 372      0.697500
      6 O11         1.8730    0.7210    2.5030 o         1 372     -0.587500
      7 N9          2.7710   -1.2970    1.7320 n         1 372     -0.383000
      8 C10         3.3010   -1.8090    2.9500 c3        1 372      0.091300
      9 C2          2.1680   -1.1930   -0.5180 ca        1 372     -0.131300
     10 C1          2.0900   -1.6330   -1.8200 ca        1 372     -0.095000
     11 C3          2.8240   -1.9650    0.4930 ca        1 372      0.040600
     12 C4          3.3990   -3.1910    0.1690 ca        1 372     -0.136000
     13 C5          3.3130   -3.6400   -1.1490 ca        1 372     -0.149000
     14 C6          2.6680   -2.8860   -2.1540 ca        1 372      0.041600
     15 N15         2.6400   -3.3960   -3.4640 ns        1 372     -0.475100
     16 C16         1.8060   -2.9950   -4.5000 c         1 372      0.666100
     17 O17         0.9900   -2.0630   -4.3890 o         1 372     -0.592100
     18 C18         1.9510   -3.7560   -5.7990 c3        1 372     -0.178100
     19 H1         -0.3860   -0.3820    0.6960 hc        1 372      0.089700
     20 H2         -0.1390   -0.1130   -1.0870 hc        1 372      0.089700
     21 H3          2.2060    0.9700   -0.3220 hc        1 372      0.109700
     22 H4          3.1190   -1.0630    3.7690 h1        1 372      0.050700
     23 H5          2.8040   -2.7820    3.2160 h1        1 372      0.050700
     24 H6          4.4060   -1.9880    2.8470 h1        1 372      0.050700
     25 H7          1.5820   -1.0220   -2.5840 ha        1 372      0.179000
     26 H8          3.9090   -3.7990    0.9290 ha        1 372      0.144000
     27 H9          3.7700   -4.6130   -1.3930 ha        1 372      0.133000
     28 H10         3.2180   -4.1900   -3.6270 hn        1 372      0.315500
     29 H11         1.2340   -3.3280   -6.5420 hc        1 372      0.070033
     30 H12         2.9890   -3.6580   -6.1980 hc        1 372      0.070033
     31 H13         1.7150   -4.8370   -5.6490 hc        1 372      0.070033
@<TRIPOS>BOND
     1    1    2 3   
     2    2    3 1   
     3    3    4 1   
     4    3   19 1   
     5    3   20 1   
     6    4    5 1   
     7    4    9 1   
     8    4   21 1   
     9    5    6 2   
    10    5    7 1   
    11    7    8 1   
    12    7   11 1   
    13    8   22 1   
    14    8   23 1   
    15    8   24 1   
    16    9   10 ar  
    17    9   11 ar  
    18   10   14 ar  
    19   10   25 1   
    20   11   12 ar  
    21   12   13 ar  
    22   12   26 1   
    23   13   14 ar  
    24   13   27 1   
    25   14   15 1   
    26   15   16 1   
    27   15   28 1   
    28   16   17 2   
    29   16   18 1   
    30   18   29 1   
    31   18   30 1   
    32   18   31 1   
@<TRIPOS>SUBSTRUCTURE
     1 372         1 TEMP              0 ****  ****    0 ROOT
