@<TRIPOS>MOLECULE
372
   32    33     1     0     0
SMALL
bcc


@<TRIPOS>ATOM
      1 N14        -1.4580    0.7030   -1.3800 n1        1 372     -0.343800
      2 C13        -0.7700    0.4940   -0.4660 c1        1 372      0.196700
      3 C12         0.0640    0.2290    0.6840 c3        1 372     -0.012300
      4 C7          1.5170    0.0220    0.2870 c3        1 372     -0.081400
      5 C8          2.3780   -0.1860    1.5570 c         1 372      0.697500
      6 O11         2.4820    0.5710    2.5160 o         1 372     -0.521500
      7 N9          3.0650   -1.4340    1.4380 n         1 372     -0.364000
      8 C10         3.9560   -1.9760    2.4170 c3        1 372      0.071300
      9 C2          1.7930   -1.2270   -0.5020 ca        1 372     -0.145300
     10 C1          1.3290   -1.6230   -1.7320 ca        1 372     -0.034000
     11 C3          2.7240   -2.0440    0.2390 ca        1 372      0.138600
     12 C4          3.1550   -3.2710   -0.2880 ca        1 372     -0.165000
     13 C5          2.6740   -3.6720   -1.5290 ca        1 372     -0.050000
     14 C6          1.7760   -2.8630   -2.2500 ca        1 372     -0.134400
     15 N15         1.2710   -3.3070   -3.5480 n4        1 372     -0.539200
     16 C16         2.0450   -2.6700   -4.6990 c         1 372      0.557100
     17 O17         1.4370   -1.8040   -5.3050 o         1 372     -0.399100
     18 C18         3.4140   -3.1990   -4.9390 c3        1 372     -0.182100
     19 H1          0.0070    1.1020    1.3980 hc        1 372      0.105200
     20 H2         -0.3290   -0.6770    1.2240 hc        1 372      0.105200
     21 H3          1.9040    0.9290   -0.2550 hc        1 372      0.124700
     22 H4          4.0320   -1.2540    3.2750 h1        1 372      0.071033
     23 H5          4.9750   -2.1300    1.9690 h1        1 372      0.071033
     24 H6          3.5680   -2.9610    2.7930 h1        1 372      0.071033
     25 H7          0.6250   -0.9850   -2.2940 ha        1 372      0.173000
     26 H8          3.8580   -3.9090    0.2700 ha        1 372      0.176000
     27 H9          3.0100   -4.6430   -1.9320 ha        1 372      0.151000
     28 H10         1.3500   -4.3270   -3.6110 hn        1 372      0.461800
     29 H11         3.3510   -4.1520   -5.5270 hc        1 372      0.113700
     30 H12         3.9860   -2.4450   -5.5440 hc        1 372      0.113700
     31 H13         3.9610   -3.3880   -3.9820 hc        1 372      0.113700
     32 H152        0.2780   -3.0420   -3.6230 hn        1 372      0.461800
@<TRIPOS>BOND
     1    1    2 3   
     2    2    3 1   
     3    3    4 1   
     4    3   19 1   
     5    3   20 1   
     6    4    5 1   
     7    4    9 1   
     8    4   21 1   
     9    5    6 2   
    10    5    7 1   
    11    7    8 1   
    12    7   11 1   
    13    8   22 1   
    14    8   23 1   
    15    8   24 1   
    16    9   10 ar  
    17    9   11 ar  
    18   10   14 ar  
    19   10   25 1   
    20   11   12 ar  
    21   12   13 ar  
    22   12   26 1   
    23   13   14 ar  
    24   13   27 1   
    25   14   15 1   
    26   15   16 1   
    27   15   28 1   
    28   15   32 1   
    29   16   17 2   
    30   16   18 1   
    31   18   29 1   
    32   18   30 1   
    33   18   31 1   
@<TRIPOS>SUBSTRUCTURE
     1 372         1 TEMP              0 ****  ****    0 ROOT
