@<TRIPOS>MOLECULE
372
   31    32     1     0     0
SMALL
bcc


@<TRIPOS>ATOM
      1 N14        -0.7080    2.6600    0.2200 n1        1 372     -0.358800
      2 C13        -0.3320    1.5660    0.1060 c1        1 372      0.207700
      3 C12         0.1170    0.2000   -0.0440 c3        1 372     -0.004300
      4 C7          1.6230    0.0680    0.1070 c3        1 372     -0.077400
      5 C8          2.0520   -0.0820    1.5880 c         1 372      0.697500
      6 O11         1.8350    0.7080    2.5110 o         1 372     -0.587500
      7 N9          2.7750   -1.2870    1.7290 n         1 372     -0.383000
      8 C10         3.3260   -1.7890    2.9430 c3        1 372      0.091300
      9 C2          2.1570   -1.1930   -0.5160 ca        1 372     -0.131300
     10 C1          2.0810   -1.6320   -1.8180 ca        1 372     -0.095000
     11 C3          2.8370   -1.9520    0.4890 ca        1 372      0.040600
     12 C4          3.4380   -3.1630    0.1590 ca        1 372     -0.136000
     13 C5          3.3560   -3.6120   -1.1600 ca        1 372     -0.149000
     14 C6          2.6870   -2.8710   -2.1590 ca        1 372      0.041600
     15 N15         2.6630   -3.3780   -3.4700 n         1 372     -0.475100
     16 C16         1.8140   -2.9950   -4.5010 c         1 372      0.666100
     17 O17         0.9780   -2.0810   -4.3830 o         1 372     -0.592100
     18 C18         1.9700   -3.7490   -5.8010 c3        1 372     -0.178100
     19 H1         -0.1790   -0.1670   -1.0690 hc        1 372      0.089700
     20 H2         -0.4080   -0.4460    0.7140 hc        1 372      0.089700
     21 H3          2.1440    0.9700   -0.3160 hc        1 372      0.108700
     22 H4          3.1310   -1.0480    3.7650 h1        1 372      0.051033
     23 H5          2.8550   -2.7740    3.2100 h1        1 372      0.051033
     24 H6          4.4340   -1.9400    2.8330 h1        1 372      0.051033
     25 H7          1.5540   -1.0320   -2.5790 ha        1 372      0.179000
     26 H8          3.9680   -3.7600    0.9150 ha        1 372      0.144000
     27 H9          3.8340   -4.5720   -1.4080 ha        1 372      0.133000
     28 H10         3.2570   -4.1590   -3.6380 hn        1 372      0.315500
     29 H11         1.7570   -4.8360   -5.6540 hc        1 372      0.070033
     30 H12         3.0040   -3.6290   -6.2050 hc        1 372      0.070033
     31 H13         1.2410   -3.3350   -6.5410 hc        1 372      0.070033
@<TRIPOS>BOND
     1    1    2 3   
     2    2    3 1   
     3    3    4 1   
     4    3   19 1   
     5    3   20 1   
     6    4    5 1   
     7    4    9 1   
     8    4   21 1   
     9    5    6 2   
    10    5    7 1   
    11    7    8 1   
    12    7   11 1   
    13    8   22 1   
    14    8   23 1   
    15    8   24 1   
    16    9   10 ar  
    17    9   11 ar  
    18   10   14 ar  
    19   10   25 1   
    20   11   12 ar  
    21   12   13 ar  
    22   12   26 1   
    23   13   14 ar  
    24   13   27 1   
    25   14   15 1   
    26   15   16 1   
    27   15   28 1   
    28   16   17 2   
    29   16   18 1   
    30   18   29 1   
    31   18   30 1   
    32   18   31 1   
@<TRIPOS>SUBSTRUCTURE
     1 372         1 TEMP              0 ****  ****    0 ROOT
