@<TRIPOS>MOLECULE
372
   31    32     1     0     0
SMALL
bcc


@<TRIPOS>ATOM
      1 N14        -3.4560   -3.5810   -0.0870 n1        1 372     -0.358800
      2 C13        -2.7100   -2.7550    0.2480 c1        1 372      0.207700
      3 C12        -1.7750   -1.7400    0.6800 c3        1 372     -0.004300
      4 C7         -1.5860   -0.6490   -0.3600 c3        1 372     -0.077400
      5 C8         -2.6580    0.4630   -0.2440 c         1 372      0.697500
      6 O11        -3.8820    0.3300   -0.3240 o         1 372     -0.587500
      7 N9         -2.0060    1.7010   -0.0480 n         1 372     -0.383000
      8 C10        -2.6470    2.9610    0.1220 c3        1 372      0.091300
      9 C2         -0.3030    0.1130   -0.1710 ca        1 372     -0.131300
     10 C1          0.9970   -0.3380   -0.1650 ca        1 372     -0.095000
     11 C3         -0.6130    1.5000    0.0010 ca        1 372      0.040600
     12 C4          0.4120    2.4250    0.1800 ca        1 372     -0.136000
     13 C5          1.7300    1.9660    0.1930 ca        1 372     -0.149000
     14 C6          2.0460    0.6000    0.0250 ca        1 372      0.041600
     15 N15         3.3990    0.2170    0.0290 n         1 372     -0.475100
     16 C16         3.9050   -1.0650    0.2050 c         1 372      0.666100
     17 O17         3.1790   -2.0670    0.3330 o         1 372     -0.592100
     18 C18         5.4120   -1.1840    0.2210 c3        1 372     -0.178100
     19 H1         -2.1360   -1.2950    1.6490 hc        1 372      0.089700
     20 H2         -0.7780   -2.2290    0.8780 hc        1 372      0.089700
     21 H3         -1.6420   -1.0770   -1.3980 hc        1 372      0.108700
     22 H4         -2.2960    3.6830   -0.6640 h1        1 372      0.050700
     23 H5         -3.7580    2.8200    0.0280 h1        1 372      0.050700
     24 H6         -2.4100    3.3890    1.1330 h1        1 372      0.050700
     25 H7          1.2150   -1.4110   -0.3010 ha        1 372      0.179000
     26 H8          0.1970    3.4950    0.3120 ha        1 372      0.144000
     27 H9          2.5330    2.7080    0.3370 ha        1 372      0.133000
     28 H10         4.0560    0.9640   -0.0040 hn        1 372      0.315500
     29 H11         5.8450   -0.5930    1.0640 hc        1 372      0.070033
     30 H12         5.6810   -2.2610    0.3580 hc        1 372      0.070033
     31 H13         5.8460   -0.8230   -0.7420 hc        1 372      0.070033
@<TRIPOS>BOND
     1    1    2 3   
     2    2    3 1   
     3    3    4 1   
     4    3   19 1   
     5    3   20 1   
     6    4    5 1   
     7    4    9 1   
     8    4   21 1   
     9    5    6 2   
    10    5    7 1   
    11    7    8 1   
    12    7   11 1   
    13    8   22 1   
    14    8   23 1   
    15    8   24 1   
    16    9   10 ar  
    17    9   11 ar  
    18   10   14 ar  
    19   10   25 1   
    20   11   12 ar  
    21   12   13 ar  
    22   12   26 1   
    23   13   14 ar  
    24   13   27 1   
    25   14   15 1   
    26   15   16 1   
    27   15   28 1   
    28   16   17 2   
    29   16   18 1   
    30   18   29 1   
    31   18   30 1   
    32   18   31 1   
@<TRIPOS>SUBSTRUCTURE
     1 372         1 TEMP              0 ****  ****    0 ROOT
