@<TRIPOS>MOLECULE
373
   56    60     1     0     0
SMALL
bcc


@<TRIPOS>ATOM
      1 C1          0.0400    0.0240    0.0450 ca        1 373     -0.141800
      2 C2          1.4440    0.0640    0.1420 ca        1 373     -0.068000
      3 C3          2.0650    0.0890    1.3780 ca        1 373     -0.161000
      4 C4          1.2940    0.0750    2.5510 ca        1 373     -0.068000
      5 C5         -0.0870    0.0380    2.4940 ca        1 373     -0.183000
      6 C6         -0.7420    0.0120    1.2340 ca        1 373      0.098600
      7 N11        -2.1260   -0.0230    1.1430 ns        1 373     -0.438100
      8 C12        -2.8080   -0.0410   -0.0790 c         1 373      0.708700
      9 C13        -1.9880   -0.0440   -1.3110 cc        1 373     -0.130200
     10 C14        -0.6300   -0.0030   -1.2250 cd        1 373     -0.020200
     11 C16        -2.6970   -0.0740   -2.5750 cc        1 373     -0.013100
     12 N17        -2.1340   -0.6220   -3.7480 na        1 373     -0.189400
     13 C18        -3.0620   -0.5010   -4.7770 ca        1 373     -0.028200
     14 C19        -4.2350    0.1660   -4.2530 ca        1 373     -0.109800
     15 C20        -3.9750    0.4200   -2.8580 cd        1 373     -0.133200
     16 C24        -3.0020   -0.8970   -6.1240 ca        1 373     -0.145000
     17 C25        -4.1010   -0.6360   -6.9250 ca        1 373     -0.106000
     18 C26        -5.2490    0.0150   -6.4230 ca        1 373     -0.144300
     19 C27        -5.3150    0.4250   -5.0960 ca        1 373     -0.057000
     20 C31        -6.3830    0.3020   -7.3630 c3        1 373      0.228100
     21 N32        -7.6950   -0.0770   -6.8480 n3        1 373     -0.737600
     22 C35        -7.7850   -1.4710   -6.4490 c3        1 373      0.171800
     23 C36        -9.1220   -1.7940   -5.7770 c3        1 373     -0.084400
     24 C37       -10.2860   -1.3990   -6.6720 c3        1 373     -0.090700
     25 C38       -10.1510    0.0500   -7.1270 c3        1 373     -0.084400
     26 C39        -8.7750    0.3030   -7.7450 c3        1 373      0.171800
     27 C48       -11.6260   -1.5310   -5.9440 c3        1 373      0.097800
     28 N50       -11.9020   -2.9230   -5.4800 nz        1 373     -0.837600
     29 O1         -4.0540   -0.0540   -0.0420 o         1 373     -0.638500
     30 H2          2.0420    0.0760   -0.7820 ha        1 373      0.139000
     31 H3          3.1620    0.1210    1.4480 ha        1 373      0.146000
     32 H4          1.7980    0.0960    3.5300 ha        1 373      0.144000
     33 H5         -0.6780    0.0290    3.4220 ha        1 373      0.144000
     34 HN11       -2.6650   -0.0200    1.9820 hn        1 373      0.338500
     35 H14         0.0040    0.0220   -2.1260 ha        1 373      0.141000
     36 HN17       -1.2700   -1.0910   -3.8010 hn        1 373      0.300700
     37 H20        -4.6500    0.8880   -2.1440 ha        1 373      0.181000
     38 H24        -2.1120   -1.3960   -6.5300 ha        1 373      0.139000
     39 H25        -4.0750   -0.9390   -7.9830 ha        1 373      0.130000
     40 H27        -6.2010    0.9500   -4.7100 ha        1 373      0.143000
     41 H311       -6.4170    1.4170   -7.5430 h1        1 373      0.045700
     42 H312       -6.1800   -0.1970   -8.3580 h1        1 373      0.045700
     43 H351       -6.9550   -1.6720   -5.7120 h1        1 373      0.052200
     44 H352       -7.6500   -2.1720   -7.3250 h1        1 373      0.052200
     45 H361       -9.1900   -1.2480   -4.8000 hc        1 373      0.052950
     46 H362       -9.1360   -2.8950   -5.5690 hc        1 373      0.052950
     47 H37       -10.2860   -2.0590   -7.5860 hc        1 373      0.069700
     48 H381      -10.9340    0.2850   -7.8930 hc        1 373      0.052950
     49 H382      -10.2990    0.7370   -6.2520 hc        1 373      0.052950
     50 H391       -8.6810    1.4050   -7.9580 h1        1 373      0.052200
     51 H392       -8.7180   -0.2450   -8.7320 h1        1 373      0.052200
     52 H481      -11.6340   -0.8620   -5.0340 hx        1 373      0.112200
     53 H482      -12.4670   -1.2240   -6.6320 hx        1 373      0.112200
     54 H501      -11.1690   -3.2190   -4.8250 hn        1 373      0.460800
     55 H502      -12.8120   -2.9670   -5.0110 hn        1 373      0.460800
     56 H503      -11.9030   -3.5660   -6.2780 hn        1 373      0.460800
@<TRIPOS>BOND
     1    1    2 ar  
     2    1    6 ar  
     3    1   10 1   
     4    2    3 ar  
     5    2   30 1   
     6    3    4 ar  
     7    3   31 1   
     8    4    5 ar  
     9    4   32 1   
    10    5    6 ar  
    11    5   33 1   
    12    6    7 1   
    13    7    8 1   
    14    7   34 1   
    15    8    9 1   
    16    8   29 2   
    17    9   10 2   
    18    9   11 1   
    19   10   35 1   
    20   11   12 1   
    21   11   15 2   
    22   12   13 1   
    23   12   36 1   
    24   13   14 ar  
    25   13   16 ar  
    26   14   15 1   
    27   14   19 ar  
    28   15   37 1   
    29   16   17 ar  
    30   16   38 1   
    31   17   18 ar  
    32   17   39 1   
    33   18   19 ar  
    34   18   20 1   
    35   19   40 1   
    36   20   21 1   
    37   20   41 1   
    38   20   42 1   
    39   21   22 1   
    40   21   26 1   
    41   22   23 1   
    42   22   43 1   
    43   22   44 1   
    44   23   24 1   
    45   23   45 1   
    46   23   46 1   
    47   24   25 1   
    48   24   27 1   
    49   24   47 1   
    50   25   26 1   
    51   25   48 1   
    52   25   49 1   
    53   26   50 1   
    54   26   51 1   
    55   27   28 1   
    56   27   52 1   
    57   27   53 1   
    58   28   54 1   
    59   28   55 1   
    60   28   56 1   
@<TRIPOS>SUBSTRUCTURE
     1 373         1 TEMP              0 ****  ****    0 ROOT
