@<TRIPOS>MOLECULE
373
   55    59     1     0     0
SMALL
bcc


@<TRIPOS>ATOM
      1 C1         -2.5470  -10.2980    4.2470 ca        1 373     -0.132800
      2 C2         -1.7780  -11.4680    4.3770 ca        1 373     -0.071000
      3 C3         -2.3860  -12.7090    4.4440 ca        1 373     -0.166000
      4 C4         -3.7840  -12.8090    4.3830 ca        1 373     -0.077000
      5 C5         -4.5720  -11.6790    4.2570 ca        1 373     -0.184000
      6 C6         -3.9650  -10.3970    4.1890 ca        1 373      0.095600
      7 N11        -4.7270   -9.2450    4.0670 n         1 373     -0.443100
      8 C12        -4.1660   -7.9630    4.0040 c         1 373      0.705700
      9 C13        -2.6880   -7.8670    4.0420 cc        1 373     -0.106200
     10 C14        -1.9400   -8.9970    4.1720 cd        1 373     -0.041200
     11 C16        -2.1060   -6.5430    3.9490 cc        1 373     -0.043100
     12 N17        -0.7620   -6.3400    3.5440 na        1 373     -0.189400
     13 C18        -0.5260   -4.9630    3.5250 ca        1 373     -0.035200
     14 C19        -1.7070   -4.2890    4.0170 ca        1 373     -0.110800
     15 C20        -2.6890   -5.3160    4.2720 cd        1 373     -0.112200
     16 C24         0.6200   -4.2350    3.1690 ca        1 373     -0.154000
     17 C25         0.5790   -2.8570    3.3070 ca        1 373     -0.102000
     18 C26        -0.5650   -2.1890    3.7950 ca        1 373     -0.123300
     19 C27        -1.7060   -2.9010    4.1520 ca        1 373     -0.050000
     20 C31        -0.5090   -0.7000    3.9740 c3        1 373      0.221100
     21 N32        -1.6560    0.0140    3.4220 n3        1 373     -0.728600
     22 C35        -1.7960   -0.1730    1.9850 c3        1 373      0.168800
     23 C36        -2.9900    0.5720    1.3930 c3        1 373     -0.072900
     24 C37        -2.9470    2.0470    1.7520 c3        1 373     -0.109700
     25 C38        -2.8340    2.2030    3.2590 c3        1 373     -0.072900
     26 C39        -1.6430    1.4200    3.8080 c3        1 373      0.168800
     27 C48        -4.2000    2.7830    1.2520 c3        1 373      0.153800
     28 N50        -4.3900    2.8540   -0.1720 n3        1 373     -0.904800
     29 O1         -4.9540   -7.0020    3.9210 o         1 373     -0.626500
     30 H2         -0.6810  -11.3820    4.4260 ha        1 373      0.137000
     31 H3         -1.7790  -13.6200    4.5450 ha        1 373      0.139000
     32 H4         -4.2590  -13.8010    4.4360 ha        1 373      0.138000
     33 H5         -5.6670  -11.7730    4.2120 ha        1 373      0.141000
     34 HN11       -5.7200   -9.3240    4.0360 hn        1 373      0.335500
     35 H14        -0.8400   -8.9560    4.2340 ha        1 373      0.142000
     36 HN17       -0.2490   -6.9940    3.0130 hn        1 373      0.287700
     37 H20        -3.7050   -5.1620    4.6330 ha        1 373      0.182000
     38 H24         1.5190   -4.7400    2.7930 ha        1 373      0.132000
     39 H25         1.4650   -2.2650    3.0280 ha        1 373      0.128000
     40 H27        -2.5980   -2.3800    4.5320 ha        1 373      0.153000
     41 H311       -0.4880   -0.4880    5.0830 h1        1 373      0.035200
     42 H312        0.4610   -0.3110    3.5400 h1        1 373      0.035200
     43 H351       -1.9280   -1.2770    1.8040 h1        1 373      0.031950
     44 H352       -0.8640    0.1560    1.4340 h1        1 373      0.031950
     45 H361       -2.9640    0.4400    0.2810 hc        1 373      0.047450
     46 H362       -3.9450    0.1210    1.7700 hc        1 373      0.047450
     47 H37        -2.0360    2.5070    1.2750 hc        1 373      0.043700
     48 H381       -3.7790    1.8450    3.7440 hc        1 373      0.047450
     49 H382       -2.6990    3.2830    3.5240 hc        1 373      0.047450
     50 H391       -0.6930    1.9330    3.4710 h1        1 373      0.031950
     51 H392       -1.6730    1.4640    4.9330 h1        1 373      0.031950
     52 H481       -4.1620    3.8400    1.6440 h1        1 373      0.052700
     53 H482       -5.1080    2.2860    1.6980 h1        1 373      0.052700
     54 H501       -4.5040    1.9390   -0.5640 hn        1 373      0.344300
     55 H502       -3.6090    3.2960   -0.6160 hn        1 373      0.344300
@<TRIPOS>BOND
     1    1    2 ar  
     2    1    6 ar  
     3    1   10 1   
     4    2    3 ar  
     5    2   30 1   
     6    3    4 ar  
     7    3   31 1   
     8    4    5 ar  
     9    4   32 1   
    10    5    6 ar  
    11    5   33 1   
    12    6    7 1   
    13    7    8 1   
    14    7   34 1   
    15    8    9 1   
    16    8   29 2   
    17    9   10 2   
    18    9   11 1   
    19   10   35 1   
    20   11   12 1   
    21   11   15 2   
    22   12   13 1   
    23   12   36 1   
    24   13   14 ar  
    25   13   16 ar  
    26   14   15 1   
    27   14   19 ar  
    28   15   37 1   
    29   16   17 ar  
    30   16   38 1   
    31   17   18 ar  
    32   17   39 1   
    33   18   19 ar  
    34   18   20 1   
    35   19   40 1   
    36   20   21 1   
    37   20   41 1   
    38   20   42 1   
    39   21   22 1   
    40   21   26 1   
    41   22   23 1   
    42   22   43 1   
    43   22   44 1   
    44   23   24 1   
    45   23   45 1   
    46   23   46 1   
    47   24   25 1   
    48   24   27 1   
    49   24   47 1   
    50   25   26 1   
    51   25   48 1   
    52   25   49 1   
    53   26   50 1   
    54   26   51 1   
    55   27   28 1   
    56   27   52 1   
    57   27   53 1   
    58   28   54 1   
    59   28   55 1   
@<TRIPOS>SUBSTRUCTURE
     1 373         1 TEMP              0 ****  ****    0 ROOT
