@<TRIPOS>MOLECULE
373
   55    48     1     0     0
SMALL
bcc


@<TRIPOS>ATOM
      1 C1          3.8920   -0.1620    5.1750 c1        1 373     -0.119000
      2 C2          4.2320    1.0360    5.8560 c2        1 373     -0.069000
      3 C3          4.9340    0.9800    7.0460 c1        1 373     -0.164000
      4 C4          5.3050   -0.2410    7.5740 c1        1 373     -0.129000
      5 C5          4.9740   -1.4210    6.9080 c1        1 373     -0.129000
      6 C6          4.2590   -1.3690    5.6950 c1        1 373      0.099000
      7 N11         3.8430   -2.5620    5.0720 n3        1 373     -0.290000
      8 C12         3.0700   -2.5110    3.9430 c1        1 373      0.344000
      9 C13         2.6920   -1.2690    3.4060 c1        1 373     -0.093000
     10 C14         3.0980   -0.1070    4.0150 c1        1 373     -0.037000
     11 C16         1.8710   -1.2600    2.2710 c1        1 373      0.007000
     12 N17         2.4240   -1.3310    1.0220 n2        1 373     -0.187000
     13 C18         1.3900   -1.4260    0.0990 c1        1 373      0.012000
     14 C19         0.2020   -1.4130    0.7890 c1        1 373     -0.095000
     15 C20         0.4940   -1.3100    2.1350 c1        1 373     -0.183000
     16 C24         1.3880   -1.4560   -1.3320 c1        1 373     -0.149000
     17 C25         0.1780   -1.4720   -2.0280 c1        1 373     -0.088000
     18 C26        -1.0400   -1.4590   -1.3210 c1        1 373     -0.110000
     19 C27        -1.0360   -1.4290    0.0790 c2        1 373     -0.078000
     20 C31        -2.1830   -1.3920   -2.3510 c2        1 373     -0.024000
     21 N32        -2.3000   -0.0180   -2.8660 n3        1 373     -0.254000
     22 C35        -3.5440    0.5800   -2.3710 c3        1 373     -0.068500
     23 C36        -3.8200    1.9690   -2.9890 c3        1 373     -0.153500
     24 C37        -3.7460    1.9530   -4.5020 c3        1 373     -0.109000
     25 C38        -2.4910    1.3510   -4.9940 c3        1 373     -0.153500
     26 C39        -2.2190   -0.0400   -4.3650 c3        1 373     -0.068500
     27 C48        -3.8420    3.4210   -5.0260 c3        1 373     -0.075000
     28 N50        -4.9190    3.5290   -5.9310 n3        1 373     -0.348000
     29 O1          2.7180   -3.5280    3.4100 o         1 373     -0.383000
     30 H2          3.9750    1.8830    5.4920 ha        1 373      0.139000
     31 H3          5.1800    1.8490    7.5390 ha        1 373      0.141000
     32 H4          5.7940   -0.2780    8.4050 ha        1 373      0.140000
     33 H5          5.2410   -2.2850    7.2830 ha        1 373      0.140000
     34 HN11        4.0910   -3.3810    5.4260 hn        1 373      0.251000
     35 H14         2.8360    0.7520    3.6470 ha        1 373      0.150000
     36 HN17        3.3170   -1.4160    0.8360 DU        1 373      0.214000
     37 H20        -0.1490   -1.3330    2.8610 DU        1 373      0.214000
     38 H24         2.2480   -1.4660   -1.8300 ha        1 373      0.136000
     39 H25         0.1770   -1.4920   -3.0090 ha        1 373      0.145000
     40 H27        -1.9180   -1.4200    0.5920 ha        1 373      0.132000
     41 H311       -3.0510   -1.6620   -1.9090 h4        1 373      0.074500
     42 H312       -1.9820   -2.0330   -3.1290 h4        1 373      0.074500
     43 H351       -3.4790    0.6780   -1.3560 h1        1 373      0.072000
     44 H352       -4.3010   -0.0260   -2.5860 h1        1 373      0.072000
     45 H361       -4.6890    2.2550   -2.7270 hc        1 373      0.085500
     46 H362       -3.1460    2.6190   -2.6380 hc        1 373      0.085500
     47 H37        -4.5120    1.4360   -4.8570 hc        1 373      0.103000
     48 H381       -1.7350    1.9570   -4.7750 hc        1 373      0.085500
     49 H382       -2.5490    1.2510   -5.9890 hc        1 373      0.085500
     50 H391       -1.2950   -0.3430   -4.6350 h1        1 373      0.072000
     51 H392       -2.8930   -0.6980   -4.7190 h1        1 373      0.072000
     52 H481       -3.9830    4.0020   -4.2980 h1        1 373      0.065000
     53 H482       -3.0320    3.6560   -5.4680 h1        1 373      0.065000
     54 H501       -5.3820    4.3080   -5.7650 hn        1 373      0.143000
     55 H502       -4.5870    3.5440   -6.8080 hn        1 373      0.143000
@<TRIPOS>BOND
     1    1    2 1   
     2    1    6 1   
     3    2    3 1   
     4    2   30 1   
     5    3   31 1   
     6    4    5 1   
     7    4   32 1   
     8    5   33 1   
     9    6    7 1   
    10    7    8 1   
    11    7   34 1   
    12    8   29 1   
    13    9   10 1   
    14   10   35 1   
    15   11   12 1   
    16   11   15 1   
    17   12   13 1   
    18   13   16 1   
    19   14   19 1   
    20   16   38 1   
    21   17   18 1   
    22   17   39 1   
    23   18   19 1   
    24   19   40 1   
    25   20   21 1   
    26   20   41 1   
    27   20   42 1   
    28   21   22 1   
    29   21   26 1   
    30   22   23 1   
    31   22   43 1   
    32   22   44 1   
    33   23   24 1   
    34   23   45 1   
    35   23   46 1   
    36   24   25 1   
    37   24   27 1   
    38   24   47 1   
    39   25   26 1   
    40   25   48 1   
    41   25   49 1   
    42   26   50 1   
    43   26   51 1   
    44   27   28 1   
    45   27   52 1   
    46   27   53 1   
    47   28   54 1   
    48   28   55 1   
@<TRIPOS>SUBSTRUCTURE
     1 373         1 TEMP              0 ****  ****    0 ROOT
