@<TRIPOS>MOLECULE
373
   56    60     1     0     0
SMALL
bcc


@<TRIPOS>ATOM
      1 C1          0.0410    0.0230    0.0450 ca        1 373     -0.141800
      2 C2          1.4440    0.0640    0.1410 ca        1 373     -0.068000
      3 C3          2.0650    0.0870    1.3770 ca        1 373     -0.161000
      4 C4          1.2950    0.0720    2.5500 ca        1 373     -0.068000
      5 C5         -0.0860    0.0340    2.4930 ca        1 373     -0.183000
      6 C6         -0.7410    0.0100    1.2330 ca        1 373      0.098600
      7 N11        -2.1260   -0.0260    1.1430 n         1 373     -0.438100
      8 C12        -2.8080   -0.0430   -0.0790 c         1 373      0.708700
      9 C13        -1.9880   -0.0440   -1.3110 cc        1 373     -0.130200
     10 C14        -0.6300   -0.0030   -1.2250 cd        1 373     -0.020200
     11 C16        -2.6980   -0.0720   -2.5750 cc        1 373     -0.013100
     12 N17        -2.1340   -0.6190   -3.7480 na        1 373     -0.189400
     13 C18        -3.0620   -0.4970   -4.7780 ca        1 373     -0.028200
     14 C19        -4.2360    0.1680   -4.2520 ca        1 373     -0.109800
     15 C20        -3.9760    0.4200   -2.8570 cd        1 373     -0.133200
     16 C24        -3.0030   -0.8910   -6.1250 ca        1 373     -0.145000
     17 C25        -4.1020   -0.6300   -6.9250 ca        1 373     -0.106000
     18 C26        -5.2510    0.0190   -6.4230 ca        1 373     -0.144300
     19 C27        -5.3160    0.4280   -5.0950 ca        1 373     -0.057000
     20 C31        -6.3850    0.3070   -7.3620 c3        1 373      0.228100
     21 N32        -7.6960   -0.0750   -6.8460 n3        1 373     -0.737600
     22 C35        -7.7850   -1.4700   -6.4490 c3        1 373      0.171800
     23 C36        -9.1210   -1.7950   -5.7780 c3        1 373     -0.084400
     24 C37       -10.2860   -1.4010   -6.6720 c3        1 373     -0.090700
     25 C38       -10.1530    0.0500   -7.1250 c3        1 373     -0.084400
     26 C39        -8.7770    0.3040   -7.7430 c3        1 373      0.171800
     27 C48       -11.6260   -1.5350   -5.9440 c3        1 373      0.097800
     28 N50       -11.9000   -2.9280   -5.4820 n4        1 373     -0.837600
     29 O1         -4.0540   -0.0570   -0.0410 o         1 373     -0.638500
     30 H2          2.0420    0.0780   -0.7830 ha        1 373      0.139000
     31 H3          3.1630    0.1200    1.4470 ha        1 373      0.146000
     32 H4          1.8000    0.0920    3.5300 ha        1 373      0.144000
     33 H5         -0.6770    0.0240    3.4220 ha        1 373      0.144000
     34 HN11       -2.6640   -0.0240    1.9820 hn        1 373      0.338500
     35 H14         0.0040    0.0240   -2.1270 ha        1 373      0.141000
     36 HN17       -1.2700   -1.0870   -3.8030 hn        1 373      0.300700
     37 H20        -4.6510    0.8870   -2.1420 ha        1 373      0.181000
     38 H24        -2.1120   -1.3890   -6.5320 ha        1 373      0.139000
     39 H25        -4.0770   -0.9310   -7.9840 ha        1 373      0.130000
     40 H27        -6.2030    0.9510   -4.7070 ha        1 373      0.143000
     41 H311       -6.1820   -0.1910   -8.3570 h1        1 373      0.045700
     42 H312       -6.4200    1.4220   -7.5390 h1        1 373      0.045700
     43 H351       -7.6490   -2.1690   -7.3270 h1        1 373      0.052200
     44 H352       -6.9540   -1.6710   -5.7130 h1        1 373      0.052200
     45 H361       -9.1330   -2.8970   -5.5710 hc        1 373      0.052950
     46 H362       -9.1890   -1.2510   -4.8000 hc        1 373      0.052950
     47 H37       -10.2850   -2.0590   -7.5870 hc        1 373      0.069700
     48 H381      -10.9360    0.2840   -7.8900 hc        1 373      0.052950
     49 H382      -10.3010    0.7350   -6.2490 hc        1 373      0.052950
     50 H391       -8.7200   -0.2420   -8.7310 h1        1 373      0.052200
     51 H392       -8.6850    1.4070   -7.9540 h1        1 373      0.052200
     52 H481      -11.6340   -0.8680   -5.0330 hx        1 373      0.112200
     53 H482      -12.4660   -1.2290   -6.6310 hx        1 373      0.112200
     54 H501      -12.8090   -2.9740   -5.0130 hn        1 373      0.460800
     55 H502      -11.1660   -3.2240   -4.8270 hn        1 373      0.460800
     56 H503      -11.8990   -3.5700   -6.2810 hn        1 373      0.460800
@<TRIPOS>BOND
     1    1    2 ar  
     2    1    6 ar  
     3    1   10 1   
     4    2    3 ar  
     5    2   30 1   
     6    3    4 ar  
     7    3   31 1   
     8    4    5 ar  
     9    4   32 1   
    10    5    6 ar  
    11    5   33 1   
    12    6    7 1   
    13    7    8 1   
    14    7   34 1   
    15    8    9 1   
    16    8   29 2   
    17    9   10 2   
    18    9   11 1   
    19   10   35 1   
    20   11   12 1   
    21   11   15 2   
    22   12   13 1   
    23   12   36 1   
    24   13   14 ar  
    25   13   16 ar  
    26   14   15 1   
    27   14   19 ar  
    28   15   37 1   
    29   16   17 ar  
    30   16   38 1   
    31   17   18 ar  
    32   17   39 1   
    33   18   19 ar  
    34   18   20 1   
    35   19   40 1   
    36   20   21 1   
    37   20   41 1   
    38   20   42 1   
    39   21   22 1   
    40   21   26 1   
    41   22   23 1   
    42   22   43 1   
    43   22   44 1   
    44   23   24 1   
    45   23   45 1   
    46   23   46 1   
    47   24   25 1   
    48   24   27 1   
    49   24   47 1   
    50   25   26 1   
    51   25   48 1   
    52   25   49 1   
    53   26   50 1   
    54   26   51 1   
    55   27   28 1   
    56   27   52 1   
    57   27   53 1   
    58   28   54 1   
    59   28   55 1   
    60   28   56 1   
@<TRIPOS>SUBSTRUCTURE
     1 373         1 TEMP              0 ****  ****    0 ROOT
