@<TRIPOS>MOLECULE
376
   49    51     1     0     0
SMALL
bcc


@<TRIPOS>ATOM
      1 C18         0.1660    0.6980   -0.9990 ca        1 376      0.003000
      2 C17         0.2460    2.1140   -0.9680 ca        1 376     -0.200000
      3 C16         0.2310    2.7930    0.2310 ca        1 376     -0.034000
      4 C15         0.1280    2.0920    1.4560 ca        1 376     -0.108000
      5 C14         0.0360    0.7220    1.4560 ca        1 376     -0.073000
      6 C13         0.0510   -0.0090    0.2340 ca        1 376     -0.048000
      7 C12        -0.0420   -1.4230    0.2390 ca        1 376     -0.002000
      8 C11        -0.0210   -2.1390   -0.9410 ca        1 376     -0.144000
      9 C10         0.1020   -1.4760   -2.1710 ca        1 376     -0.047000
     10 C9          0.2020   -0.0850   -2.1990 ca        1 376     -0.115400
     11 N2          0.4160    0.5840   -3.4880 n4        1 376     -0.487200
     12 C8         -0.8330    1.1580   -4.0490 c         1 376      0.493100
     13 O8         -1.0940    2.3460   -3.9490 o         1 376     -0.352100
     14 C7         -1.7600    0.1830   -4.7720 c         1 376      0.475100
     15 O7         -2.1040   -0.9130   -4.3730 o         1 376     -0.319100
     16 N1         -2.2490    0.6840   -6.0900 n4        1 376     -0.669800
     17 C1         -1.1770    0.5090   -7.1590 c3        1 376      0.346300
     18 O5          0.0370    0.8830   -6.5260 os        1 376     -0.494600
     19 C5          1.1950    0.7640   -7.3890 c3        1 376      0.128100
     20 C6          2.3570    1.3040   -6.5470 c3        1 376      0.132400
     21 O6          2.4870    0.5190   -5.3750 oh        1 376     -0.670800
     22 C4          1.0180    1.5830   -8.6780 c3        1 376      0.090100
     23 O4          2.1050    1.2220   -9.5050 oh        1 376     -0.579800
     24 C3         -0.3060    1.2110   -9.3760 c3        1 376      0.082100
     25 O3         -0.5680    2.1070  -10.4360 oh        1 376     -0.582800
     26 C2         -1.4670    1.4110   -8.3840 c3        1 376      0.113100
     27 O2         -2.7110    0.9790   -8.8850 oh        1 376     -0.617800
     28 H17         0.3090    2.7000   -1.8970 ha        1 376      0.120000
     29 H16         0.2980    3.8940    0.2480 ha        1 376      0.169000
     30 H15         0.1210    2.6590    2.4030 ha        1 376      0.179000
     31 H14        -0.0490    0.1620    2.4040 ha        1 376      0.172000
     32 H12        -0.1310   -1.9480    1.2080 ha        1 376      0.182000
     33 H11        -0.0930   -3.2400   -0.9320 ha        1 376      0.183000
     34 H10         0.1230   -2.0790   -3.0940 ha        1 376      0.148000
     35 HN2         0.8300   -0.0750   -4.1750 hn        1 376      0.499300
     36 HN1        -3.0860    0.1590   -6.4040 hn        1 376      0.502300
     37 H1         -1.1650   -0.5870   -7.4470 hx        1 376      0.133700
     38 H5          1.3420   -0.3250   -7.6310 h1        1 376      0.095700
     39 H6          2.1430    2.3510   -6.2020 h1        1 376      0.097700
     40 H6A         3.2830    1.2890   -7.1830 h1        1 376      0.097700
     41 HO6         3.2680   -0.0430   -5.4710 ho        1 376      0.454000
     42 H4          1.0260    2.6860   -8.4510 h1        1 376      0.085700
     43 HO4         2.2140    1.9240  -10.1640 ho        1 376      0.447000
     44 H3         -0.2710    0.1480   -9.7410 h1        1 376      0.087700
     45 HO3        -0.1150    1.7720  -11.2240 ho        1 376      0.450000
     46 H2         -1.5250    2.4990   -8.0900 h1        1 376      0.094700
     47 HO2        -2.8020    1.3240   -9.7900 ho        1 376      0.483000
     48 H22         1.0990    1.3550   -3.3510 hn        1 376      0.499300
     49 H121       -2.4950    1.6830   -6.0150 hn        1 376      0.502300
@<TRIPOS>BOND
     1    1    2 ar  
     2    1    6 ar  
     3    1   10 ar  
     4    2    3 ar  
     5    2   28 1   
     6    3    4 ar  
     7    3   29 1   
     8    4    5 ar  
     9    4   30 1   
    10    5    6 ar  
    11    5   31 1   
    12    6    7 ar  
    13    7    8 ar  
    14    7   32 1   
    15    8    9 ar  
    16    8   33 1   
    17    9   10 ar  
    18    9   34 1   
    19   10   11 1   
    20   11   12 1   
    21   11   35 1   
    22   11   48 1   
    23   12   13 2   
    24   12   14 1   
    25   14   15 2   
    26   14   16 1   
    27   16   17 1   
    28   16   36 1   
    29   16   49 1   
    30   17   18 1   
    31   17   26 1   
    32   17   37 1   
    33   18   19 1   
    34   19   20 1   
    35   19   22 1   
    36   19   38 1   
    37   20   21 1   
    38   20   39 1   
    39   20   40 1   
    40   21   41 1   
    41   22   23 1   
    42   22   24 1   
    43   22   42 1   
    44   23   43 1   
    45   24   25 1   
    46   24   26 1   
    47   24   44 1   
    48   25   45 1   
    49   26   27 1   
    50   26   46 1   
    51   27   47 1   
@<TRIPOS>SUBSTRUCTURE
     1 376         1 TEMP              0 ****  ****    0 ROOT
