@<TRIPOS>MOLECULE
376
   48    50     1     0     0
SMALL
bcc


@<TRIPOS>ATOM
      1 C18         0.1160    0.2390   -0.4250 ca        1 376     -0.030000
      2 C17         1.4770   -0.0530   -0.7130 ca        1 376     -0.148000
      3 C16         2.4450    0.0620    0.2570 ca        1 376     -0.095000
      4 C15         2.1070    0.4790    1.5650 ca        1 376     -0.118000
      5 C14         0.8030    0.7820    1.8690 ca        1 376     -0.101000
      6 C13        -0.2180    0.6740    0.8850 ca        1 376     -0.031000
      7 C12        -1.5620    1.0070    1.2080 ca        1 376     -0.088000
      8 C11        -2.5500    0.9100    0.2620 ca        1 376     -0.124000
      9 C10        -2.2520    0.4640   -1.0430 ca        1 376     -0.103000
     10 C9         -0.9510    0.1220   -1.3890 ca        1 376      0.002600
     11 N2         -0.6460   -0.3830   -2.6820 ns        1 376     -0.390100
     12 C8         -1.3100   -0.0400   -3.8140 c         1 376      0.617100
     13 O8         -2.3170    0.6800   -3.9350 o         1 376     -0.564100
     14 C7         -0.7340   -0.6700   -5.1090 c         1 376      0.456100
     15 O7          0.1710   -1.4840   -5.1950 o         1 376     -0.399100
     16 N1         -1.4020   -0.2030   -6.3690 ny        1 376     -0.667800
     17 C1         -0.4220    0.1580   -7.4560 c3        1 376      0.333300
     18 O5          0.1400    1.4050   -7.0720 os        1 376     -0.422600
     19 C5          1.2050    1.8120   -7.9570 c3        1 376      0.115100
     20 C6          1.7080    3.1360   -7.3720 c3        1 376      0.137400
     21 O6          2.5450    2.7950   -6.2840 oh        1 376     -0.596800
     22 C4          0.6690    1.9800   -9.3890 c3        1 376      0.077100
     23 O4          1.7390    2.1320  -10.3020 oh        1 376     -0.582800
     24 C3         -0.0580    0.6990   -9.8480 c3        1 376      0.118100
     25 O3         -0.7460    0.9120  -11.0630 oh        1 376     -0.594800
     26 C2         -1.1380    0.3210   -8.8220 c3        1 376      0.109100
     27 O2         -1.7480   -0.9200   -9.1020 oh        1 376     -0.622800
     28 H17         1.7880   -0.3640   -1.7210 ha        1 376      0.118000
     29 H16         3.4970   -0.1670    0.0240 ha        1 376      0.145000
     30 H15         2.8980    0.5590    2.3260 ha        1 376      0.151000
     31 H14         0.5220    1.1140    2.8820 ha        1 376      0.149000
     32 H12        -1.7910    1.3460    2.2320 ha        1 376      0.153000
     33 H11        -3.5920    1.1730    0.5030 ha        1 376      0.154000
     34 H10        -3.0760    0.4000   -1.7740 ha        1 376      0.158000
     35 HN2         0.1560   -0.9770   -2.7500 hn        1 376      0.355500
     36 HN1        -1.9860    0.6200   -6.1400 hn        1 376      0.492300
     37 H1          0.3640   -0.6560   -7.4990 hx        1 376      0.127700
     38 H5          2.0250    1.0410   -7.9290 h1        1 376      0.098700
     39 H6          0.8460    3.7660   -7.0260 h1        1 376      0.051200
     40 H6A         2.2910    3.6830   -8.1610 h1        1 376      0.051200
     41 HO6         2.8780    3.6230   -5.9150 ho        1 376      0.426000
     42 H4         -0.0350    2.8560   -9.4410 h1        1 376      0.076700
     43 HO4         2.0580    3.0410  -10.2340 ho        1 376      0.428000
     44 H3          0.6860   -0.1390   -9.9690 h1        1 376      0.080700
     45 HO3        -0.0830    1.1710  -11.7210 ho        1 376      0.449000
     46 H2         -1.9200    1.1310   -8.7780 h1        1 376      0.088700
     47 HO2        -1.9490   -0.9390  -10.0520 ho        1 376      0.470000
     48 H121       -2.0060   -0.9520   -6.7430 hn        1 376      0.492300
@<TRIPOS>BOND
     1    1    2 ar  
     2    1    6 ar  
     3    1   10 ar  
     4    2    3 ar  
     5    2   28 1   
     6    3    4 ar  
     7    3   29 1   
     8    4    5 ar  
     9    4   30 1   
    10    5    6 ar  
    11    5   31 1   
    12    6    7 ar  
    13    7    8 ar  
    14    7   32 1   
    15    8    9 ar  
    16    8   33 1   
    17    9   10 ar  
    18    9   34 1   
    19   10   11 1   
    20   11   12 1   
    21   11   35 1   
    22   12   13 2   
    23   12   14 1   
    24   14   15 2   
    25   14   16 1   
    26   16   17 1   
    27   16   36 1   
    28   16   48 1   
    29   17   18 1   
    30   17   26 1   
    31   17   37 1   
    32   18   19 1   
    33   19   20 1   
    34   19   22 1   
    35   19   38 1   
    36   20   21 1   
    37   20   39 1   
    38   20   40 1   
    39   21   41 1   
    40   22   23 1   
    41   22   24 1   
    42   22   42 1   
    43   23   43 1   
    44   24   25 1   
    45   24   26 1   
    46   24   44 1   
    47   25   45 1   
    48   26   27 1   
    49   26   46 1   
    50   27   47 1   
@<TRIPOS>SUBSTRUCTURE
     1 376         1 TEMP              0 ****  ****    0 ROOT
