@<TRIPOS>MOLECULE
376
   48    50     1     0     0
SMALL
bcc


@<TRIPOS>ATOM
      1 C18         0.1270    0.2300   -0.4290 ca        1 376     -0.030000
      2 C17         1.4860   -0.0710   -0.7230 ca        1 376     -0.148000
      3 C16         2.4580    0.0390    0.2430 ca        1 376     -0.095000
      4 C15         2.1270    0.4590    1.5520 ca        1 376     -0.118000
      5 C14         0.8270    0.7690    1.8620 ca        1 376     -0.101000
      6 C13        -0.1990    0.6680    0.8810 ca        1 376     -0.031000
      7 C12        -1.5390    1.0090    1.2100 ca        1 376     -0.088000
      8 C11        -2.5310    0.9180    0.2680 ca        1 376     -0.124000
      9 C10        -2.2410    0.4700   -1.0380 ca        1 376     -0.103000
     10 C9         -0.9440    0.1200   -1.3890 ca        1 376      0.002600
     11 N2         -0.6470   -0.3880   -2.6830 n         1 376     -0.390100
     12 C8         -1.3140   -0.0400   -3.8120 c         1 376      0.617100
     13 O8         -2.3170    0.6850   -3.9300 o         1 376     -0.564100
     14 C7         -0.7460   -0.6740   -5.1100 c         1 376      0.456100
     15 O7          0.1530   -1.4940   -5.1990 o         1 376     -0.399100
     16 N1         -1.4150   -0.2020   -6.3670 n4        1 376     -0.667800
     17 C1         -0.4350    0.1590   -7.4550 c3        1 376      0.333300
     18 O5          0.1330    1.4030   -7.0690 os        1 376     -0.422600
     19 C5          1.1990    1.8080   -7.9540 c3        1 376      0.115100
     20 C6          1.7070    3.1270   -7.3670 c3        1 376      0.137400
     21 O6          2.5440    2.7800   -6.2800 oh        1 376     -0.596800
     22 C4          0.6610    1.9810   -9.3850 c3        1 376      0.077100
     23 O4          1.7310    2.1310  -10.2990 oh        1 376     -0.582800
     24 C3         -0.0710    0.7040   -9.8460 c3        1 376      0.118100
     25 O3         -0.7610    0.9240  -11.0590 oh        1 376     -0.594800
     26 C2         -1.1520    0.3280   -8.8200 c3        1 376      0.109100
     27 O2         -1.7670   -0.9100   -9.1020 oh        1 376     -0.622800
     28 H17         1.7910   -0.3830   -1.7320 ha        1 376      0.118000
     29 H16         3.5070   -0.1970    0.0060 ha        1 376      0.145000
     30 H15         2.9220    0.5340    2.3110 ha        1 376      0.151000
     31 H14         0.5520    1.1030    2.8760 ha        1 376      0.149000
     32 H12        -1.7620    1.3490    2.2340 ha        1 376      0.153000
     33 H11        -3.5710    1.1880    0.5130 ha        1 376      0.154000
     34 H10        -3.0680    0.4110   -1.7660 ha        1 376      0.158000
     35 HN2         0.1520   -0.9870   -2.7550 hn        1 376      0.355500
     36 HN1        -1.9940    0.6240   -6.1360 hn        1 376      0.492300
     37 H1          0.3480   -0.6590   -7.5020 hx        1 376      0.127700
     38 H5          2.0150    1.0330   -7.9300 h1        1 376      0.098700
     39 H6          2.2920    3.6740   -8.1550 h1        1 376      0.051200
     40 H6A         0.8490    3.7600   -7.0180 h1        1 376      0.051200
     41 HO6         2.8800    3.6060   -5.9080 ho        1 376      0.426000
     42 H4         -0.0390    2.8600   -9.4340 h1        1 376      0.076700
     43 HO4         2.0530    3.0390  -10.2290 ho        1 376      0.428000
     44 H3          0.6680   -0.1360   -9.9710 h1        1 376      0.080700
     45 HO3        -0.0980    1.1820  -11.7180 ho        1 376      0.449000
     46 H2         -1.9310    1.1410   -8.7730 h1        1 376      0.088700
     47 HO2        -1.9690   -0.9250  -10.0520 ho        1 376      0.470000
     48 H121       -2.0220   -0.9470   -6.7430 hn        1 376      0.492300
@<TRIPOS>BOND
     1    1    2 ar  
     2    1    6 ar  
     3    1   10 ar  
     4    2    3 ar  
     5    2   28 1   
     6    3    4 ar  
     7    3   29 1   
     8    4    5 ar  
     9    4   30 1   
    10    5    6 ar  
    11    5   31 1   
    12    6    7 ar  
    13    7    8 ar  
    14    7   32 1   
    15    8    9 ar  
    16    8   33 1   
    17    9   10 ar  
    18    9   34 1   
    19   10   11 1   
    20   11   12 1   
    21   11   35 1   
    22   12   13 2   
    23   12   14 1   
    24   14   15 2   
    25   14   16 1   
    26   16   17 1   
    27   16   36 1   
    28   16   48 1   
    29   17   18 1   
    30   17   26 1   
    31   17   37 1   
    32   18   19 1   
    33   19   20 1   
    34   19   22 1   
    35   19   38 1   
    36   20   21 1   
    37   20   39 1   
    38   20   40 1   
    39   21   41 1   
    40   22   23 1   
    41   22   24 1   
    42   22   42 1   
    43   23   43 1   
    44   24   25 1   
    45   24   26 1   
    46   24   44 1   
    47   25   45 1   
    48   26   27 1   
    49   26   46 1   
    50   27   47 1   
@<TRIPOS>SUBSTRUCTURE
     1 376         1 TEMP              0 ****  ****    0 ROOT
