@<TRIPOS>MOLECULE
376
   47    45     1     0     0
SMALL
bcc


@<TRIPOS>ATOM
      1 C18        -1.3100   -2.1100    4.0810 c1        1 376     -0.048000
      2 C17        -1.8710   -2.9420    3.0830 c1        1 376     -0.122000
      3 C16        -2.7420   -3.9670    3.4400 c1        1 376     -0.122000
      4 C15        -3.0620   -4.1770    4.7780 c1        1 376     -0.122000
      5 C14        -2.5110   -3.3600    5.7630 c1        1 376     -0.122000
      6 C13        -1.6230   -2.3140    5.4000 c1        1 376     -0.022000
      7 C12        -1.0820   -1.4470    6.4060 c2        1 376     -0.133000
      8 C11        -0.2330   -0.3930    6.0390 c1        1 376     -0.107000
      9 C10         0.0850   -0.1870    4.6880 c1        1 376     -0.146000
     10 C9         -0.4430   -1.0310    3.7090 c2        1 376      0.065000
     11 N2          0.3910   -0.7450    2.5860 n         1 376     -0.295000
     12 C8         -0.1390    0.0080    1.4560 c2        1 376      0.290000
     13 O8         -1.2900    0.3910    1.4700 o         1 376     -0.343000
     14 C7          0.6890    0.1760    0.2130 c2        1 376      0.281000
     15 O7          1.8750   -0.1140    0.2260 o         1 376     -0.336000
     16 N1          0.0730    0.6860   -1.0150 n         1 376     -0.334000
     17 C1          0.8510    0.8430   -2.1850 c3        1 376      0.105000
     18 O5          1.1300    2.2720   -2.3800 os        1 376     -0.309000
     19 C5          1.7840    2.5550   -3.6610 c3        1 376     -0.003000
     20 C6          1.8610    4.0420   -3.8500 c3        1 376     -0.010000
     21 O6          2.8360    4.5850   -2.9660 oh        1 376     -0.319000
     22 C4          1.0420    1.9510   -4.8410 c3        1 376      0.011000
     23 O4          1.8440    2.1200   -6.0270 oh        1 376     -0.320000
     24 C3          0.7650    0.5140   -4.6550 c3        1 376     -0.002000
     25 O3         -0.1160    0.0590   -5.7450 oh        1 376     -0.332000
     26 C2          0.1040    0.2320   -3.3570 c3        1 376     -0.026000
     27 O2          0.0360   -1.1910   -3.1720 oh        1 376     -0.326000
     28 H17        -1.6380   -2.7900    2.1020 ha        1 376      0.133750
     29 H16        -3.1330   -4.5460    2.7430 ha        1 376      0.133750
     30 H15        -3.6930   -4.9190    5.0340 ha        1 376      0.133750
     31 H14        -2.7350   -3.5050    6.6970 ha        1 376      0.133750
     32 H12        -1.3090   -1.5950    7.3690 ha        1 376      0.137000
     33 H11         0.1370    0.1980    6.7230 ha        1 376      0.139000
     34 H10         0.6870    0.5580    4.4280 ha        1 376      0.167000
     35 HN2         1.2940   -0.9970    2.5990 hn        1 376      0.260000
     36 HN1        -0.7960    0.9530   -1.0100 hn        1 376      0.248000
     37 H1          1.6820    0.3790   -2.0720 h2        1 376      0.141000
     38 H5          2.7140    2.1840   -3.6380 h1        1 376      0.115000
     39 H6          2.1150    4.2410   -4.7810 h1        1 376      0.105000
     40 H6A         0.9920    4.4400   -3.6590 h1        1 376      0.105000
     41 HO6         2.9700    5.4550   -3.1660 ho        1 376      0.209000
     42 H4          0.1810    2.4320   -4.9610 h1        1 376      0.102000
     43 HO4         1.3700    2.5680   -6.6520 ho        1 376      0.225000
     44 H3          1.6240    0.0110   -4.6990 h1        1 376      0.108000
     45 HO3         0.2250   -0.6980   -6.1130 ho        1 376      0.227000
     46 H2         -0.8340    0.6060   -3.3790 h1        1 376      0.104000
     47 HO2        -0.8010   -1.4330   -3.0460 ho        1 376      0.220000
@<TRIPOS>BOND
     1    1    6 1   
     2    1   10 1   
     3    2    3 1   
     4    2   28 1   
     5    3   29 1   
     6    4    5 1   
     7    4   30 1   
     8    5   31 1   
     9    6    7 1   
    10    7    8 1   
    11    7   32 1   
    12    8   33 1   
    13    9   10 1   
    14    9   34 1   
    15   10   11 1   
    16   11   12 1   
    17   11   35 1   
    18   12   13 1   
    19   12   14 1   
    20   14   15 1   
    21   14   16 1   
    22   16   17 1   
    23   16   36 1   
    24   17   18 1   
    25   17   26 1   
    26   17   37 1   
    27   18   19 1   
    28   19   20 1   
    29   19   22 1   
    30   19   38 1   
    31   20   21 1   
    32   20   39 1   
    33   20   40 1   
    34   21   41 1   
    35   22   23 1   
    36   22   24 1   
    37   22   42 1   
    38   23   43 1   
    39   24   25 1   
    40   24   26 1   
    41   24   44 1   
    42   25   45 1   
    43   26   27 1   
    44   26   46 1   
    45   27   47 1   
@<TRIPOS>SUBSTRUCTURE
     1 376         1 TEMP              0 ****  ****    0 ROOT
