@<TRIPOS>MOLECULE
376
   47    49     1     0     0
SMALL
bcc


@<TRIPOS>ATOM
      1 C18         4.6540   -0.2480    0.2020 ca        1 376     -0.048000
      2 C17         4.4920   -1.2960    1.1510 ca        1 376     -0.126000
      3 C16         5.5740   -1.9970    1.6260 ca        1 376     -0.122000
      4 C15         6.8800   -1.6930    1.1770 ca        1 376     -0.124000
      5 C14         7.0680   -0.6990    0.2510 ca        1 376     -0.117000
      6 C13         5.9650    0.0390   -0.2610 ca        1 376     -0.022000
      7 C12         6.1740    1.0510   -1.2370 ca        1 376     -0.132000
      8 C11         5.1110    1.7570   -1.7370 ca        1 376     -0.108000
      9 C10         3.8000    1.5070   -1.2800 ca        1 376     -0.144000
     10 C9          3.5550    0.5320   -0.3200 ca        1 376      0.056600
     11 N2          2.2570    0.3120    0.1850 n         1 376     -0.440100
     12 C8          1.0820    0.5520   -0.4860 c         1 376      0.595100
     13 O8          0.9880    1.0690   -1.6130 o         1 376     -0.580100
     14 C7         -0.1980    0.1340    0.2800 c         1 376      0.587100
     15 O7         -0.1420   -0.6540    1.2410 o         1 376     -0.574100
     16 N1         -1.3650    0.7550   -0.1310 n         1 376     -0.524900
     17 C1         -2.6490    0.2600    0.3080 c3        1 376      0.253500
     18 O5         -3.1550   -0.5850   -0.7460 os        1 376     -0.452600
     19 C5         -4.3760   -1.2370   -0.3950 c3        1 376      0.108100
     20 C6         -4.7210   -2.1390   -1.5840 c3        1 376      0.140400
     21 O6         -3.8050   -3.2030   -1.7020 oh        1 376     -0.591800
     22 C4         -5.4780   -0.1930   -0.1610 c3        1 376      0.122100
     23 O4         -6.6360   -0.8940    0.2550 oh        1 376     -0.592800
     24 C3         -5.0270    0.7930    0.9280 c3        1 376      0.109100
     25 O3         -6.0260    1.7960    1.0010 oh        1 376     -0.604800
     26 C2         -3.6680    1.4080    0.5540 c3        1 376      0.085100
     27 O2         -3.2910    2.2000    1.6640 oh        1 376     -0.598800
     28 H17         3.4920   -1.5800    1.5140 ha        1 376      0.130000
     29 H16         5.4350   -2.8070    2.3580 ha        1 376      0.136000
     30 H15         7.7320   -2.2640    1.5750 ha        1 376      0.136000
     31 H14         8.0770   -0.4530   -0.1160 ha        1 376      0.136000
     32 H12         7.2000    1.2480   -1.5820 ha        1 376      0.137000
     33 H11         5.2610    2.5350   -2.5000 ha        1 376      0.138000
     34 H10         2.9760    2.1000   -1.7110 ha        1 376      0.164000
     35 HN2         2.1880   -0.1680    1.0590 hn        1 376      0.344500
     36 HN1        -1.3480    1.1730   -1.0400 hn        1 376      0.333500
     37 H1         -2.5210   -0.3450    1.2560 h2        1 376      0.100700
     38 H5         -4.2240   -1.8570    0.5310 h1        1 376      0.075700
     39 H6         -5.7200   -2.6190   -1.3970 h1        1 376      0.065700
     40 H6A        -4.7470   -1.5340   -2.5290 h1        1 376      0.065700
     41 HO6        -2.9310   -2.8130   -1.8350 ho        1 376      0.410000
     42 H4         -5.6930    0.3710   -1.1120 h1        1 376      0.062700
     43 HO4        -7.2920   -0.2220    0.4870 ho        1 376      0.426000
     44 H3         -4.9460    0.2680    1.9210 h1        1 376      0.068700
     45 HO3        -5.7260    2.4390    1.6570 ho        1 376      0.428000
     46 H2         -3.7770    2.0460   -0.3660 h1        1 376      0.064700
     47 HO2        -2.4620    2.6410    1.4380 ho        1 376      0.421000
@<TRIPOS>BOND
     1    1    2 ar  
     2    1    6 ar  
     3    1   10 ar  
     4    2    3 ar  
     5    2   28 1   
     6    3    4 ar  
     7    3   29 1   
     8    4    5 ar  
     9    4   30 1   
    10    5    6 ar  
    11    5   31 1   
    12    6    7 ar  
    13    7    8 ar  
    14    7   32 1   
    15    8    9 ar  
    16    8   33 1   
    17    9   10 ar  
    18    9   34 1   
    19   10   11 1   
    20   11   12 1   
    21   11   35 1   
    22   12   13 2   
    23   12   14 1   
    24   14   15 2   
    25   14   16 1   
    26   16   17 1   
    27   16   36 1   
    28   17   18 1   
    29   17   26 1   
    30   17   37 1   
    31   18   19 1   
    32   19   20 1   
    33   19   22 1   
    34   19   38 1   
    35   20   21 1   
    36   20   39 1   
    37   20   40 1   
    38   21   41 1   
    39   22   23 1   
    40   22   24 1   
    41   22   42 1   
    42   23   43 1   
    43   24   25 1   
    44   24   26 1   
    45   24   44 1   
    46   25   45 1   
    47   26   27 1   
    48   26   46 1   
    49   27   47 1   
@<TRIPOS>SUBSTRUCTURE
     1 376         1 TEMP              0 ****  ****    0 ROOT
