@<TRIPOS>MOLECULE
377
   35    37     1     0     0
SMALL
bcc


@<TRIPOS>ATOM
      1 C10         0.0000    0.0030    0.0040 c3        1 377     -0.080400
      2 C11        -0.0140    1.2490    2.1630 c3        1 377     -0.091400
      3 N01         2.0350    1.2490    3.5930 nz        1 377     -0.846600
      4 C02         1.5310    2.5060   -0.0100 c3        1 377     -0.041000
      5 C03         1.5300   -0.0080   -0.0090 c3        1 377     -0.041000
      6 C04         1.5260    1.2490    2.1560 c3        1 377      0.140200
      7 C05        -0.5040    1.2490    0.7170 c3        1 377     -0.056700
      8 C06         2.0380    1.2490   -0.7170 c3        1 377     -0.076400
      9 C07         2.0420    2.5080    1.4360 c3        1 377     -0.090400
     10 C08         2.0420   -0.0100    1.4360 c3        1 377     -0.090400
     11 C09         0.0010    2.4960    0.0040 c3        1 377     -0.080400
     12 C12         2.0400    3.7470   -0.7200 c3        1 377     -0.094100
     13 C13         2.0390   -1.2490   -0.7200 c3        1 377     -0.094100
     14 H1         -0.3810   -0.0080   -1.0500 hc        1 377      0.066200
     15 H2         -0.3830   -0.9180    0.5150 hc        1 377      0.066200
     16 H3         -0.4030    2.1600    2.6880 hc        1 377      0.062700
     17 H4         -0.4030    0.3380    2.6880 hc        1 377      0.062700
     18 H5          3.0580    1.2490    3.5930 hn        1 377      0.453800
     19 H6          1.6950    2.0840    4.0750 hn        1 377      0.453800
     20 H8         -1.6280    1.2500    0.7230 hc        1 377      0.086700
     21 H9          1.6770    1.2490   -1.7790 hc        1 377      0.066700
     22 H10         3.1580    1.2490   -0.7380 hc        1 377      0.066700
     23 H11         1.6760    3.4320    1.9540 hc        1 377      0.063200
     24 H12         3.1630    2.5210    1.4280 hc        1 377      0.063200
     25 H13         3.1630   -0.0240    1.4290 hc        1 377      0.063200
     26 H14         1.6750   -0.9340    1.9540 hc        1 377      0.063200
     27 H15        -0.3830    3.4160    0.5150 hc        1 377      0.066200
     28 H16        -0.3810    2.5060   -1.0500 hc        1 377      0.066200
     29 H17         3.1560    3.7600   -0.7330 hc        1 377      0.052700
     30 H18         1.6740    3.7580   -1.7760 hc        1 377      0.052700
     31 H19         1.6740    4.6690   -0.2080 hc        1 377      0.052700
     32 H20         1.6730   -2.1710   -0.2080 hc        1 377      0.052700
     33 H21         3.1550   -1.2630   -0.7320 hc        1 377      0.052700
     34 H22         1.6730   -1.2600   -1.7760 hc        1 377      0.052700
     35 H013        1.6950    0.4140    4.0760 hn        1 377      0.453800
@<TRIPOS>BOND
     1    1    5 1   
     2    1    7 1   
     3    1   14 1   
     4    1   15 1   
     5    2    6 1   
     6    2    7 1   
     7    2   16 1   
     8    2   17 1   
     9    3    6 1   
    10    3   18 1   
    11    3   19 1   
    12    3   35 1   
    13    4    8 1   
    14    4    9 1   
    15    4   11 1   
    16    4   12 1   
    17    5    8 1   
    18    5   10 1   
    19    5   13 1   
    20    6    9 1   
    21    6   10 1   
    22    7   11 1   
    23    7   20 1   
    24    8   21 1   
    25    8   22 1   
    26    9   23 1   
    27    9   24 1   
    28   10   25 1   
    29   10   26 1   
    30   11   27 1   
    31   11   28 1   
    32   12   29 1   
    33   12   30 1   
    34   12   31 1   
    35   13   32 1   
    36   13   33 1   
    37   13   34 1   
@<TRIPOS>SUBSTRUCTURE
     1 377         1 TEMP              0 ****  ****    0 ROOT
