@<TRIPOS>MOLECULE
377
   34    36     1     0     0
SMALL
bcc


@<TRIPOS>ATOM
      1 C10         0.0040    0.0060    0.0080 c3        1 377     -0.064900
      2 C11        -0.0030    1.2560    2.1630 c3        1 377     -0.061400
      3 N01         2.0140    1.2190    3.5830 n3        1 377     -0.897800
      4 C02         1.5320    2.5080   -0.0100 c3        1 377     -0.049500
      5 C03         1.5340   -0.0030   -0.0020 c3        1 377     -0.049500
      6 C04         1.5440    1.2530    2.1960 c3        1 377      0.177200
      7 C05        -0.4980    1.2530    0.7240 c3        1 377     -0.061700
      8 C06         2.0360    1.2500   -0.7200 c3        1 377     -0.059400
      9 C07         2.0400    2.5060    1.4310 c3        1 377     -0.077900
     10 C08         2.0450    0.0020    1.4390 c3        1 377     -0.077900
     11 C09         0.0020    2.4960    0.0000 c3        1 377     -0.064900
     12 C12         2.0350    3.7450   -0.7310 c3        1 377     -0.085600
     13 C13         2.0390   -1.2430   -0.7170 c3        1 377     -0.085600
     14 H1         -0.3740   -0.9110    0.5290 hc        1 377      0.041700
     15 H2         -0.3800   -0.0100   -1.0440 hc        1 377      0.041700
     16 H3         -0.3920    2.1650    2.6900 hc        1 377      0.046200
     17 H4         -0.3910    0.3510    2.6970 hc        1 377      0.046200
     18 H5          1.6860    2.0300    4.0700 hn        1 377      0.344800
     19 H6          3.0150    1.2120    3.6000 hn        1 377      0.344800
     20 H8         -1.6210    1.2520    0.7250 hc        1 377      0.048700
     21 H9          1.6740    1.2470   -1.7800 hc        1 377      0.041200
     22 H10         3.1560    1.2520   -0.7380 hc        1 377      0.041200
     23 H11         1.6800    3.4310    1.9500 hc        1 377      0.042200
     24 H12         3.1600    2.5250    1.4270 hc        1 377      0.042200
     25 H13         3.1650   -0.0140    1.4340 hc        1 377      0.042200
     26 H14         1.6870   -0.9210    1.9640 hc        1 377      0.042200
     27 H15        -0.3790    3.4160    0.5140 hc        1 377      0.041700
     28 H16        -0.3810    2.5050   -1.0520 hc        1 377      0.041700
     29 H17         1.6710    4.6680   -0.2190 hc        1 377      0.034367
     30 H18         3.1510    3.7600   -0.7430 hc        1 377      0.034367
     31 H19         1.6680    3.7540   -1.7850 hc        1 377      0.034367
     32 H20         1.6770   -2.1630   -0.1990 hc        1 377      0.034367
     33 H21         1.6700   -1.2580   -1.7710 hc        1 377      0.034367
     34 H22         3.1550   -1.2560   -0.7300 hc        1 377      0.034367
@<TRIPOS>BOND
     1    1    5 1   
     2    1    7 1   
     3    1   14 1   
     4    1   15 1   
     5    2    6 1   
     6    2    7 1   
     7    2   16 1   
     8    2   17 1   
     9    3    6 1   
    10    3   18 1   
    11    3   19 1   
    12    4    8 1   
    13    4    9 1   
    14    4   11 1   
    15    4   12 1   
    16    5    8 1   
    17    5   10 1   
    18    5   13 1   
    19    6    9 1   
    20    6   10 1   
    21    7   11 1   
    22    7   20 1   
    23    8   21 1   
    24    8   22 1   
    25    9   23 1   
    26    9   24 1   
    27   10   25 1   
    28   10   26 1   
    29   11   27 1   
    30   11   28 1   
    31   12   29 1   
    32   12   30 1   
    33   12   31 1   
    34   13   32 1   
    35   13   33 1   
    36   13   34 1   
@<TRIPOS>SUBSTRUCTURE
     1 377         1 TEMP              0 ****  ****    0 ROOT
