@<TRIPOS>MOLECULE
379
   47    48     1     0     0
SMALL
bcc


@<TRIPOS>ATOM
      1 P11         0.3890   -0.3190    1.5070 p5        1 379      1.243400
      2 C1          1.2800   -1.0950   -0.8020 c3        1 379     -0.100400
      3 C3          0.8320    0.1970   -0.1620 c3        1 379     -0.112700
      4 C6          1.5750   -0.9590   -2.2810 c3        1 379     -0.035100
      5 C8          1.9080   -2.2620   -2.9110 ca        1 379     -0.176600
      6 N10         1.8800    1.2180   -0.0320 nz        1 379     -0.835600
      7 C11        -0.3650    1.0380    2.1290 c3        1 379     -0.376600
      8 O12         1.7550   -0.4090    2.1120 o         1 379     -0.860500
      9 C13        -1.4250    1.6440    1.2420 c3        1 379     -0.142700
     10 O13        -0.4950   -1.4930    1.3810 o         1 379     -0.860500
     11 C15        -0.8330    2.6700    0.2460 c         1 379      0.891600
     12 C16        -2.5070    2.3480    2.0610 c3        1 379     -0.018100
     13 C01         0.9460   -3.2970   -2.9810 ca        1 379      0.405200
     14 C17        -3.8930    2.1030    1.5740 ca        1 379     -0.058300
     15 N18         1.1740   -4.4880   -3.5620 nb        1 379     -0.666000
     16 C19         2.3940   -4.6950   -4.0980 ca        1 379      0.379200
     17 C20         3.4210   -3.7360   -4.0750 ca        1 379     -0.252300
     18 C21         3.1670   -2.5030   -3.4730 ca        1 379     -0.100000
     19 O23        -1.3030    2.7310   -0.9230 o         1 379     -0.843800
     20 O24         0.1670    3.3860    0.6000 o         1 379     -0.843800
     21 C36        -4.9110    1.7980    2.4870 ca        1 379     -0.130000
     22 C37        -6.2200    1.6020    2.0490 ca        1 379     -0.142000
     23 C38        -6.5260    1.7060    0.6940 ca        1 379     -0.152000
     24 C39        -5.5170    2.0050   -0.2220 ca        1 379     -0.142000
     25 C40        -4.2080    2.2030    0.2120 ca        1 379     -0.130000
     26 H1          2.1710   -1.4950   -0.2470 hc        1 379      0.094200
     27 H2          0.4390   -1.8330   -0.6410 hc        1 379      0.094200
     28 H12        -0.0380    0.6320   -0.7260 hx        1 379      0.138700
     29 H6          2.4230   -0.2410   -2.4420 hc        1 379      0.043700
     30 H7          0.6730   -0.5240   -2.7950 hc        1 379      0.043700
     31 H11         2.4780    0.9310    0.7690 hn        1 379      0.453133
     32 H13         1.4360    2.1480    0.1750 hn        1 379      0.453133
     33 H16        -0.8280    0.7370    3.1070 hc        1 379      0.084700
     34 H17         0.3770    1.8400    2.3870 hc        1 379      0.084700
     35 H18        -1.8950    0.8110    0.6470 hc        1 379      0.061700
     36 H19        -2.3150    3.4570    2.0400 hc        1 379      0.045700
     37 H20        -2.4380    2.0310    3.1370 hc        1 379      0.045700
     38 H8         -0.0580   -3.1560   -2.5370 h4        1 379      0.040100
     39 H10         2.5510   -5.6830   -4.5650 h4        1 379      0.011100
     40 H14         4.3990   -3.9570   -4.5210 ha        1 379      0.132000
     41 H15         3.9480   -1.7300   -3.4380 ha        1 379      0.130000
     42 H21        -4.6750    1.7070    3.5580 ha        1 379      0.156000
     43 H22        -7.0090    1.3600    2.7750 ha        1 379      0.115000
     44 H25        -7.5570    1.5490    0.3480 ha        1 379      0.110000
     45 H23        -5.7530    2.0830   -1.2930 ha        1 379      0.115000
     46 H24        -3.4000    2.4330   -0.5110 ha        1 379      0.156000
     47 H103        2.4370    1.2900   -0.8760 hn        1 379      0.453133
@<TRIPOS>BOND
     1    1    3 1   
     2    1    7 1   
     3    1    8 1   
     4    1   10 1   
     5    2    3 1   
     6    2    4 1   
     7    2   26 1   
     8    2   27 1   
     9    3    6 1   
    10    3   28 1   
    11    4    5 1   
    12    4   29 1   
    13    4   30 1   
    14    5   13 ar  
    15    5   18 ar  
    16    6   31 1   
    17    6   32 1   
    18    6   47 1   
    19    7    9 1   
    20    7   33 1   
    21    7   34 1   
    22    9   11 1   
    23    9   12 1   
    24    9   35 1   
    25   11   19 1   
    26   11   20 1   
    27   12   14 1   
    28   12   36 1   
    29   12   37 1   
    30   13   15 ar  
    31   13   38 1   
    32   14   21 ar  
    33   14   25 ar  
    34   15   16 ar  
    35   16   17 ar  
    36   16   39 1   
    37   17   18 ar  
    38   17   40 1   
    39   18   41 1   
    40   21   22 ar  
    41   21   42 1   
    42   22   23 ar  
    43   22   43 1   
    44   23   24 ar  
    45   23   44 1   
    46   24   25 ar  
    47   24   45 1   
    48   25   46 1   
@<TRIPOS>SUBSTRUCTURE
     1 379         1 TEMP              0 ****  ****    0 ROOT
