@<TRIPOS>MOLECULE
379
   47    48     1     0     0
SMALL
bcc


@<TRIPOS>ATOM
      1 P11         0.2420   -0.3230    1.3350 p5        1 379      1.515100
      2 C1          1.2980   -1.1740   -0.8360 c3        1 379     -0.078400
      3 C3          0.7800    0.1070   -0.1950 c3        1 379     -0.167700
      4 C6          1.5670   -1.0170   -2.3180 c3        1 379     -0.032100
      5 C8          1.9900   -2.2940   -2.9470 ca        1 379     -0.175600
      6 N10         1.7750    1.1590   -0.0720 n3        1 379     -0.924800
      7 C11        -0.4310    1.0030    2.0260 c3        1 379     -0.429600
      8 O12         1.5700   -0.5940    2.2270 oh        1 379     -0.792400
      9 C13        -1.5640    1.5730    1.1920 c3        1 379     -0.168700
     10 O13        -0.5420   -1.5580    1.3620 o         1 379     -0.871300
     11 C15        -1.0250    2.6030    0.1520 c         1 379      0.895600
     12 C16        -2.6030    2.2650    2.0660 c3        1 379     -0.016100
     13 C01         1.0890   -3.3790   -3.0570 ca        1 379      0.400200
     14 C17        -4.0020    2.1360    1.5700 ca        1 379     -0.059300
     15 N18         1.4010   -4.5530   -3.6350 nb        1 379     -0.668000
     16 C19         2.6480   -4.6890   -4.1290 ca        1 379      0.377200
     17 C20         3.6190   -3.6750   -4.0680 ca        1 379     -0.252300
     18 C21         3.2780   -2.4620   -3.4670 ca        1 379     -0.099000
     19 O23        -0.2190    3.4930    0.5470 o         1 379     -0.831800
     20 O24        -1.3740    2.4490   -1.0530 o         1 379     -0.831800
     21 C36        -5.0450    1.9480    2.4870 ca        1 379     -0.130500
     22 C37        -6.3660    1.8580    2.0500 ca        1 379     -0.141500
     23 C38        -6.6600    1.9550    0.6910 ca        1 379     -0.153000
     24 C39        -5.6270    2.1410   -0.2270 ca        1 379     -0.141500
     25 C40        -4.3050    2.2310    0.2050 ca        1 379     -0.130500
     26 H1          0.5170   -1.9700   -0.6760 hc        1 379      0.068200
     27 H2          2.2280   -1.5040   -0.3020 hc        1 379      0.068200
     28 H12        -0.0950    0.4650   -0.8320 h1        1 379      0.123700
     29 H6          2.3590   -0.2370   -2.4820 hc        1 379      0.056700
     30 H7          0.6320   -0.6480   -2.8230 hc        1 379      0.056700
     31 H11         1.3020    2.0380    0.0860 hn        1 379      0.373800
     32 H13         2.3050    1.2420   -0.9190 hn        1 379      0.373800
     33 H16        -0.8180    0.7320    3.0450 hc        1 379      0.106700
     34 H17         0.2910    1.8470    2.2080 hc        1 379      0.106700
     35 H4          2.3210   -0.0310    2.0780 ho        1 379      0.458000
     36 H18        -2.0520    0.7260    0.6340 hc        1 379      0.051700
     37 H19        -2.3430    3.3590    2.1280 hc        1 379      0.047700
     38 H20        -2.5550    1.8590    3.1130 hc        1 379      0.047700
     39 H8          0.0640   -3.2940   -2.6510 h4        1 379      0.036100
     40 H10         2.8740   -5.6630   -4.5960 h4        1 379      0.010100
     41 H14         4.6210   -3.8380   -4.4830 ha        1 379      0.132000
     42 H15         4.0140   -1.6470   -3.4020 ha        1 379      0.135000
     43 H21        -4.8200    1.8660    3.5600 ha        1 379      0.157000
     44 H22        -7.1740    1.7080    2.7790 ha        1 379      0.115500
     45 H25        -7.7000    1.8830    0.3460 ha        1 379      0.110000
     46 H23        -5.8520    2.2150   -1.3010 ha        1 379      0.115500
     47 H24        -3.4820    2.3750   -0.5240 ha        1 379      0.157000
@<TRIPOS>BOND
     1    1    3 1   
     2    1    7 1   
     3    1    8 1   
     4    1   10 2   
     5    2    3 1   
     6    2    4 1   
     7    2   26 1   
     8    2   27 1   
     9    3    6 1   
    10    3   28 1   
    11    4    5 1   
    12    4   29 1   
    13    4   30 1   
    14    5   13 ar  
    15    5   18 ar  
    16    6   31 1   
    17    6   32 1   
    18    7    9 1   
    19    7   33 1   
    20    7   34 1   
    21    8   35 1   
    22    9   11 1   
    23    9   12 1   
    24    9   36 1   
    25   11   19 1   
    26   11   20 1   
    27   12   14 1   
    28   12   37 1   
    29   12   38 1   
    30   13   15 ar  
    31   13   39 1   
    32   14   21 ar  
    33   14   25 ar  
    34   15   16 ar  
    35   16   17 ar  
    36   16   40 1   
    37   17   18 ar  
    38   17   41 1   
    39   18   42 1   
    40   21   22 ar  
    41   21   43 1   
    42   22   23 ar  
    43   22   44 1   
    44   23   24 ar  
    45   23   45 1   
    46   24   25 ar  
    47   24   46 1   
    48   25   47 1   
@<TRIPOS>SUBSTRUCTURE
     1 379         1 TEMP              0 ****  ****    0 ROOT
