@<TRIPOS>MOLECULE
379
   47    48     1     0     0
SMALL
bcc


@<TRIPOS>ATOM
      1 P11         0.3900   -0.2860    1.5140 p5        1 379      1.243400
      2 C1          1.3020   -1.0670   -0.7850 c3        1 379     -0.100400
      3 C3          0.8300    0.2220   -0.1580 c3        1 379     -0.112700
      4 C6          1.6000   -0.9400   -2.2640 c3        1 379     -0.035100
      5 C8          1.9560   -2.2420   -2.8820 ca        1 379     -0.176600
      6 N10         1.8600    1.2620   -0.0330 n4        1 379     -0.835600
      7 C11        -0.3890    1.0630    2.1220 c3        1 379     -0.376600
      8 O12         1.7550   -0.3480    2.1240 o         1 379     -0.860500
      9 C13        -1.4550    1.6450    1.2260 c3        1 379     -0.142700
     10 O13        -0.4740   -1.4760    1.3950 o         1 379     -0.860500
     11 C15        -0.8770    2.6710    0.2230 c         1 379      0.891600
     12 C16        -2.5510    2.3380    2.0350 c3        1 379     -0.018100
     13 C01         1.0110   -3.2930   -2.9460 ca        1 379      0.405200
     14 C17        -3.9320    2.0650    1.5460 ca        1 379     -0.058300
     15 N18         1.2610   -4.4860   -3.5160 nb        1 379     -0.666000
     16 C19         2.4860   -4.6770   -4.0450 ca        1 379      0.379200
     17 C20         3.4970   -3.7020   -4.0270 ca        1 379     -0.252300
     18 C21         3.2210   -2.4680   -3.4360 ca        1 379     -0.100000
     19 O23        -1.3440    2.7150   -0.9480 o         1 379     -0.843800
     20 O24         0.1100    3.4060    0.5740 o         1 379     -0.843800
     21 C36        -4.9470    1.7520    2.4580 ca        1 379     -0.130000
     22 C37        -6.2510    1.5290    2.0180 ca        1 379     -0.142000
     23 C38        -6.5550    1.6170    0.6610 ca        1 379     -0.152000
     24 C39        -5.5480    1.9250   -0.2540 ca        1 379     -0.142000
     25 C40        -4.2440    2.1480    0.1820 ca        1 379     -0.130000
     26 H1          2.1960   -1.4480   -0.2230 hc        1 379      0.094200
     27 H2          0.4730   -1.8180   -0.6210 hc        1 379      0.094200
     28 H12        -0.0440    0.6380   -0.7280 hx        1 379      0.137700
     29 H6          0.6940   -0.5230   -2.7850 hc        1 379      0.043700
     30 H7          2.4380   -0.2090   -2.4280 hc        1 379      0.043700
     31 H11         2.4200    1.3360   -0.8760 hn        1 379      0.453133
     32 H13         2.4610    0.9910    0.7720 hn        1 379      0.453133
     33 H16         0.3390    1.8800    2.3750 hc        1 379      0.084700
     34 H17        -0.8490    0.7640    3.1010 hc        1 379      0.084700
     35 H18        -1.9090    0.7990    0.6370 hc        1 379      0.061700
     36 H19        -2.4800    2.0320    3.1140 hc        1 379      0.045700
     37 H20        -2.3780    3.4500    2.0050 hc        1 379      0.045700
     38 H8          0.0040   -3.1640   -2.5060 h4        1 379      0.040100
     39 H10         2.6600   -5.6660   -4.5030 h4        1 379      0.011100
     40 H14         4.4790   -3.9100   -4.4680 ha        1 379      0.132000
     41 H15         3.9900   -1.6820   -3.4060 ha        1 379      0.130000
     42 H21        -4.7130    1.6730    3.5300 ha        1 379      0.156000
     43 H22        -7.0380    1.2800    2.7430 ha        1 379      0.115000
     44 H25        -7.5820    1.4400    0.3130 ha        1 379      0.110000
     45 H23        -5.7810    1.9900   -1.3260 ha        1 379      0.115000
     46 H24        -3.4380    2.3860   -0.5400 ha        1 379      0.156000
     47 H103        1.4010    2.1870    0.1640 hn        1 379      0.453133
@<TRIPOS>BOND
     1    1    3 1   
     2    1    7 1   
     3    1    8 1   
     4    1   10 1   
     5    2    3 1   
     6    2    4 1   
     7    2   26 1   
     8    2   27 1   
     9    3    6 1   
    10    3   28 1   
    11    4    5 1   
    12    4   29 1   
    13    4   30 1   
    14    5   13 ar  
    15    5   18 ar  
    16    6   31 1   
    17    6   32 1   
    18    6   47 1   
    19    7    9 1   
    20    7   33 1   
    21    7   34 1   
    22    9   11 1   
    23    9   12 1   
    24    9   35 1   
    25   11   19 1   
    26   11   20 1   
    27   12   14 1   
    28   12   36 1   
    29   12   37 1   
    30   13   15 ar  
    31   13   38 1   
    32   14   21 ar  
    33   14   25 ar  
    34   15   16 ar  
    35   16   17 ar  
    36   16   39 1   
    37   17   18 ar  
    38   17   40 1   
    39   18   41 1   
    40   21   22 ar  
    41   21   42 1   
    42   22   23 ar  
    43   22   43 1   
    44   23   24 ar  
    45   23   44 1   
    46   24   25 ar  
    47   24   45 1   
    48   25   46 1   
@<TRIPOS>SUBSTRUCTURE
     1 379         1 TEMP              0 ****  ****    0 ROOT
