@<TRIPOS>MOLECULE
37A
   51    54     1     0     0
SMALL
bcc


@<TRIPOS>ATOM
      1 O6         -1.3970    0.6730    0.7120 o         1 37A     -0.388100
      2 C9         -0.2560    0.3450    0.4220 c         1 37A      0.530100
      3 C6          0.9570    0.6250    1.2960 c3        1 37A      0.039100
      4 O2          2.0150   -0.3060    1.0200 os        1 37A     -0.442600
      5 C5          0.6410    0.3660    2.7970 c3        1 37A      0.114100
      6 C7          1.4760    1.2770    3.7070 c3        1 37A      0.059000
      7 N1          2.9220    1.0480    3.5670 n         1 37A     -0.421800
      8 C21         3.7160    1.9190    4.2680 c         1 37A      0.626100
      9 O1          3.3980    3.0030    4.7610 o         1 37A     -0.461100
     10 N2          5.2250    1.5980    4.4620 ny        1 37A     -0.438300
     11 O4          5.9650    2.7280    4.4800 oh        1 37A     -0.341300
     12 C3          3.4180   -0.2070    3.0300 c3        1 37A      0.015000
     13 O3          1.1120   -0.9880    2.9440 os        1 37A     -0.373600
     14 C1          2.3440   -0.9990    2.2400 c3        1 37A      0.330900
     15 N3         -0.0230   -0.3470   -0.8830 ny        1 37A     -0.666800
     16 C12        -0.7430    0.3030   -2.0460 c3        1 37A      0.185100
     17 C13        -0.0320    1.5120   -2.5280 ca        1 37A     -0.222300
     18 C15         1.1540    1.3800   -3.2660 ca        1 37A     -0.095000
     19 C19         1.7790    2.5040   -3.7910 ca        1 37A     -0.126500
     20 C17         1.2260    3.7840   -3.6010 cp        1 37A      0.055000
     21 C16         0.0370    3.9060   -2.8620 ca        1 37A     -0.126500
     22 C14        -0.5850    2.7830   -2.3290 ca        1 37A     -0.095000
     23 C18         1.8680    4.9620   -4.1750 cp        1 37A     -0.097000
     24 C11         1.8660    6.1820   -3.4810 ca        1 37A     -0.103500
     25 C2          2.4720    7.3060   -4.0360 ca        1 37A     -0.124000
     26 C20         2.4830    4.8900   -5.4340 ca        1 37A     -0.103500
     27 C10         3.0820    6.0190   -5.9880 ca        1 37A     -0.124000
     28 C4          3.0790    7.2280   -5.2910 ca        1 37A     -0.090000
     29 H6          1.3280    1.6620    1.0720 h1        1 37A      0.143700
     30 H5         -0.4460    0.3820    3.0710 h1        1 37A      0.170700
     31 H71         1.2640    2.3600    3.4690 h1        1 37A      0.114700
     32 H72         1.1720    1.0770    4.7770 h1        1 37A      0.114700
     33 HN2         5.3470    1.0830    5.3550 hn        1 37A      0.486800
     34 HO4         5.5080    3.4180    5.0290 ho        1 37A      0.502000
     35 H31         4.2660    0.0020    2.3140 h1        1 37A      0.089700
     36 H32         3.7700   -0.8810    3.8640 h1        1 37A      0.089700
     37 H1          2.6520   -2.0470    1.9980 h2        1 37A      0.170700
     38 HN3         0.9880   -0.3590   -1.0800 hn        1 37A      0.469800
     39 H121       -1.7930    0.5450   -1.7060 hx        1 37A      0.122200
     40 H122       -0.7900   -0.4790   -2.8610 hx        1 37A      0.122200
     41 H15         1.5800    0.3830   -3.4570 ha        1 37A      0.138500
     42 H19         2.7080    2.3940   -4.3730 ha        1 37A      0.166000
     43 H16        -0.4210    4.9010   -2.7280 ha        1 37A      0.166000
     44 H14        -1.5330    2.8960   -1.7770 ha        1 37A      0.138500
     45 H11         1.3870    6.2530   -2.4930 ha        1 37A      0.132500
     46 H2          2.4660    8.2600   -3.4870 ha        1 37A      0.151500
     47 H20         2.4760    3.9450   -5.9990 ha        1 37A      0.132500
     48 H10         3.5530    5.9580   -6.9810 ha        1 37A      0.151500
     49 H4          3.5510    8.1200   -5.7310 ha        1 37A      0.155000
     50 H22         5.6170    1.0330    3.6830 hn        1 37A      0.486800
     51 H321       -0.3540   -1.3160   -0.7920 hn        1 37A      0.469800
@<TRIPOS>BOND
     1    1    2 2   
     2    2    3 1   
     3    2   15 1   
     4    3    4 1   
     5    3    5 1   
     6    3   29 1   
     7    4   14 1   
     8    5    6 1   
     9    5   13 1   
    10    5   30 1   
    11    6    7 1   
    12    6   31 1   
    13    6   32 1   
    14    7    8 1   
    15    7   12 1   
    16    8    9 2   
    17    8   10 1   
    18   10   11 1   
    19   10   33 1   
    20   10   50 1   
    21   11   34 1   
    22   12   14 1   
    23   12   35 1   
    24   12   36 1   
    25   13   14 1   
    26   14   37 1   
    27   15   16 1   
    28   15   38 1   
    29   15   51 1   
    30   16   17 1   
    31   16   39 1   
    32   16   40 1   
    33   17   18 ar  
    34   17   22 ar  
    35   18   19 ar  
    36   18   41 1   
    37   19   20 ar  
    38   19   42 1   
    39   20   21 ar  
    40   20   23 1   
    41   21   22 ar  
    42   21   43 1   
    43   22   44 1   
    44   23   24 ar  
    45   23   26 ar  
    46   24   25 ar  
    47   24   45 1   
    48   25   28 ar  
    49   25   46 1   
    50   26   27 ar  
    51   26   47 1   
    52   27   28 ar  
    53   27   48 1   
    54   28   49 1   
@<TRIPOS>SUBSTRUCTURE
     1 37A         1 TEMP              0 ****  ****    0 ROOT
