@<TRIPOS>MOLECULE
37A
   51    54     1     0     0
SMALL
bcc


@<TRIPOS>ATOM
      1 O6         -1.3590    0.5000    0.5580 o         1 37A     -0.388100
      2 C9         -0.1980    0.2320    0.2900 c         1 37A      0.530100
      3 C6          0.9780    0.5270    1.2090 c3        1 37A      0.039100
      4 O2          2.0810   -0.3480    0.9290 os        1 37A     -0.442600
      5 C5          0.6310    0.1980    2.6890 c3        1 37A      0.114100
      6 C7          1.4020    1.1070    3.6560 c3        1 37A      0.059000
      7 N1          2.8600    0.9440    3.5490 n         1 37A     -0.421800
      8 C21         3.5960    1.8190    4.3050 c         1 37A      0.626100
      9 O1          3.2200    2.8700    4.8290 o         1 37A     -0.461100
     10 N2          5.1120    1.5540    4.5300 n4        1 37A     -0.438300
     11 O4          5.8030    2.7120    4.6120 oh        1 37A     -0.341300
     12 C3          3.4230   -0.2680    2.9810 c3        1 37A      0.015000
     13 O3          1.1560   -1.1400    2.7990 os        1 37A     -0.373600
     14 C1          2.4060   -1.0730    2.1310 c3        1 37A      0.330900
     15 N3          0.1000   -0.4000   -1.0330 n4        1 37A     -0.666800
     16 C12        -0.6140    0.2650   -2.1920 c3        1 37A      0.185100
     17 C13         0.0600    1.5190   -2.6060 ca        1 37A     -0.222300
     18 C15         1.2700    1.4650   -3.3130 ca        1 37A     -0.095000
     19 C19         1.8620    2.6320   -3.7770 ca        1 37A     -0.126500
     20 C17         1.2520    3.8810   -3.5550 cp        1 37A      0.055000
     21 C16         0.0380    3.9260   -2.8480 ca        1 37A     -0.126500
     22 C14        -0.5520    2.7580   -2.3760 ca        1 37A     -0.095000
     23 C18         1.8600    5.1040   -4.0650 cp        1 37A     -0.097000
     24 C11         1.7870    6.2960   -3.3270 ca        1 37A     -0.103500
     25 C2          2.3610    7.4640   -3.8210 ca        1 37A     -0.124000
     26 C20         2.5120    5.1060   -5.3080 ca        1 37A     -0.103500
     27 C10         3.0790    6.2800   -5.8010 ca        1 37A     -0.124000
     28 C4          3.0070    7.4600   -5.0590 ca        1 37A     -0.090000
     29 H6          1.3100    1.5870    1.0340 h1        1 37A      0.143700
     30 H5         -0.4620    0.1580    2.9310 h1        1 37A      0.170700
     31 H71         1.1510    2.1890    3.4530 h1        1 37A      0.114700
     32 H72         1.0780    0.8540    4.7090 h1        1 37A      0.114700
     33 HN2         5.2310    1.0100    5.4070 hn        1 37A      0.486800
     34 HO4         5.3010    3.3620    5.1720 ho        1 37A      0.502000
     35 H31         3.7810   -0.9590    3.7990 h1        1 37A      0.089700
     36 H32         4.2800    0.0030    2.2980 h1        1 37A      0.089700
     37 H1          2.7640   -2.0980    1.8600 h2        1 37A      0.170700
     38 HN3        -0.1940   -1.3850   -0.9880 hn        1 37A      0.469800
     39 H121       -0.6050   -0.4870   -3.0360 hx        1 37A      0.122200
     40 H122       -1.6820    0.4510   -1.8730 hx        1 37A      0.122200
     41 H15         1.7430    0.4940   -3.5290 ha        1 37A      0.138500
     42 H19         2.8120    2.5830   -4.3350 ha        1 37A      0.166000
     43 H16        -0.4650    4.8950   -2.6900 ha        1 37A      0.166000
     44 H14        -1.5180    2.8110   -1.8490 ha        1 37A      0.138500
     45 H11         1.2790    6.3090   -2.3510 ha        1 37A      0.132500
     46 H2          2.3000    8.3950   -3.2370 ha        1 37A      0.151500
     47 H20         2.5600    4.1850   -5.9080 ha        1 37A      0.132500
     48 H10         3.5800    6.2760   -6.7820 ha        1 37A      0.151500
     49 H4          3.4530    8.3870   -5.4520 ha        1 37A      0.155000
     50 H22         5.5480    1.0360    3.7420 hn        1 37A      0.486800
     51 H321        1.1150   -0.3640   -1.2000 hn        1 37A      0.469800
@<TRIPOS>BOND
     1    1    2 2   
     2    2    3 1   
     3    2   15 1   
     4    3    4 1   
     5    3    5 1   
     6    3   29 1   
     7    4   14 1   
     8    5    6 1   
     9    5   13 1   
    10    5   30 1   
    11    6    7 1   
    12    6   31 1   
    13    6   32 1   
    14    7    8 1   
    15    7   12 1   
    16    8    9 2   
    17    8   10 1   
    18   10   11 1   
    19   10   33 1   
    20   10   50 1   
    21   11   34 1   
    22   12   14 1   
    23   12   35 1   
    24   12   36 1   
    25   13   14 1   
    26   14   37 1   
    27   15   16 1   
    28   15   38 1   
    29   15   51 1   
    30   16   17 1   
    31   16   39 1   
    32   16   40 1   
    33   17   18 ar  
    34   17   22 ar  
    35   18   19 ar  
    36   18   41 1   
    37   19   20 ar  
    38   19   42 1   
    39   20   21 ar  
    40   20   23 1   
    41   21   22 ar  
    42   21   43 1   
    43   22   44 1   
    44   23   24 ar  
    45   23   26 ar  
    46   24   25 ar  
    47   24   45 1   
    48   25   28 ar  
    49   25   46 1   
    50   26   27 ar  
    51   26   47 1   
    52   27   28 ar  
    53   27   48 1   
    54   28   49 1   
@<TRIPOS>SUBSTRUCTURE
     1 37A         1 TEMP              0 ****  ****    0 ROOT
