@<TRIPOS>MOLECULE
37A
   49    52     1     0     0
SMALL
bcc


@<TRIPOS>ATOM
      1 O6          0.0440   -1.2610    0.2590 o         1 37A     -0.562100
      2 C9          0.8500   -0.4720   -0.2600 c         1 37A      0.645100
      3 C6          1.2500   -0.5660   -1.7310 c3        1 37A      0.041100
      4 O2          0.4840   -1.6160   -2.3510 os        1 37A     -0.397600
      5 C5          2.7160   -1.0320   -1.9260 c3        1 37A      0.097100
      6 C7          3.3050   -0.4550   -3.2240 c3        1 37A      0.080000
      7 N1          2.5650   -0.8600   -4.4050 n         1 37A     -0.478800
      8 C21         2.7380   -0.1060   -5.5660 c         1 37A      0.683100
      9 O1          3.4130    0.9480   -5.5450 o         1 37A     -0.617100
     10 N2          2.0300   -0.4650   -6.7940 n         1 37A     -0.297400
     11 O4          2.6290    0.0580   -7.8670 oh        1 37A     -0.440100
     12 C3          1.7660   -2.0620   -4.3850 c3        1 37A      0.048000
     13 O3          2.5460   -2.4520   -2.1110 os        1 37A     -0.402600
     14 C1          1.4000   -2.5360   -2.9560 c3        1 37A      0.313900
     15 N3          1.3890    0.5980    0.4410 n         1 37A     -0.560900
     16 C12         1.2030    0.7360    1.8620 c3        1 37A      0.128300
     17 C13         2.2710    0.0940    2.7030 ca        1 37A     -0.130300
     18 C15         3.2100    0.8750    3.3810 ca        1 37A     -0.117000
     19 C19         4.1780    0.2710    4.1800 ca        1 37A     -0.122500
     20 C17         4.2260   -1.1250    4.3070 cp        1 37A     -0.029000
     21 C16         3.2810   -1.9040    3.6220 ca        1 37A     -0.122500
     22 C14         2.3110   -1.2990    2.8280 ca        1 37A     -0.117000
     23 C18         5.2440   -1.7580    5.1420 cp        1 37A     -0.042000
     24 C11         5.8750   -2.9370    4.7190 ca        1 37A     -0.117000
     25 C2          6.8470   -3.5390    5.5160 ca        1 37A     -0.130500
     26 C20         5.6020   -1.1960    6.3760 ca        1 37A     -0.117000
     27 C10         6.5720   -1.8040    7.1700 ca        1 37A     -0.130500
     28 C4          7.1970   -2.9750    6.7420 ca        1 37A     -0.126000
     29 H6          1.0100    0.3880   -2.2700 h1        1 37A      0.100700
     30 H5          3.3910   -0.8900   -1.0510 h1        1 37A      0.113700
     31 H71         3.3170    0.6710   -3.1680 h1        1 37A      0.073700
     32 H72         4.3700   -0.8150   -3.3190 h1        1 37A      0.073700
     33 HN2         2.0300   -1.4750   -6.9340 hn        1 37A      0.281500
     34 HO4         2.5010    1.0270   -7.8040 ho        1 37A      0.445000
     35 H31         2.3280   -2.8990   -4.8900 h1        1 37A      0.063700
     36 H32         0.7940   -1.8870   -4.9290 h1        1 37A      0.063700
     37 H1          0.9680   -3.5630   -2.9150 h2        1 37A      0.130700
     38 HN3         2.1810    1.0550    0.0540 hn        1 37A      0.299500
     39 H121        0.2060    0.2800    2.1350 h1        1 37A      0.072700
     40 H122        1.1620    1.8410    2.0880 h1        1 37A      0.072700
     41 H15         3.1840    1.9710    3.2910 ha        1 37A      0.143000
     42 H19         4.9170    0.8920    4.7090 ha        1 37A      0.138000
     43 H16         3.3020   -3.0000    3.7220 ha        1 37A      0.138000
     44 H14         1.5640   -1.9110    2.2950 ha        1 37A      0.143000
     45 H11         5.6050   -3.3840    3.7500 ha        1 37A      0.135000
     46 H2          7.3390   -4.4620    5.1750 ha        1 37A      0.133000
     47 H20         5.1060   -0.2760    6.7200 ha        1 37A      0.135000
     48 H10         6.8430   -1.3580    8.1390 ha        1 37A      0.133000
     49 H4          7.9630   -3.4520    7.3700 ha        1 37A      0.132000
@<TRIPOS>BOND
     1    1    2 2   
     2    2    3 1   
     3    2   15 1   
     4    3    4 1   
     5    3    5 1   
     6    3   29 1   
     7    4   14 1   
     8    5    6 1   
     9    5   13 1   
    10    5   30 1   
    11    6    7 1   
    12    6   31 1   
    13    6   32 1   
    14    7    8 1   
    15    7   12 1   
    16    8    9 2   
    17    8   10 1   
    18   10   11 1   
    19   10   33 1   
    20   11   34 1   
    21   12   14 1   
    22   12   35 1   
    23   12   36 1   
    24   13   14 1   
    25   14   37 1   
    26   15   16 1   
    27   15   38 1   
    28   16   17 1   
    29   16   39 1   
    30   16   40 1   
    31   17   18 ar  
    32   17   22 ar  
    33   18   19 ar  
    34   18   41 1   
    35   19   20 ar  
    36   19   42 1   
    37   20   21 ar  
    38   20   23 1   
    39   21   22 ar  
    40   21   43 1   
    41   22   44 1   
    42   23   24 ar  
    43   23   26 ar  
    44   24   25 ar  
    45   24   45 1   
    46   25   28 ar  
    47   25   46 1   
    48   26   27 ar  
    49   26   47 1   
    50   27   28 ar  
    51   27   48 1   
    52   28   49 1   
@<TRIPOS>SUBSTRUCTURE
     1 37A         1 TEMP              0 ****  ****    0 ROOT
