@<TRIPOS>MOLECULE
37A
   51    54     1     0     0
SMALL
bcc


@<TRIPOS>ATOM
      1 O6         -1.4120    0.6910    0.6750 o         1 37A     -0.388100
      2 C9         -0.2720    0.3560    0.3910 c         1 37A      0.530100
      3 C6          0.9370    0.6150    1.2770 c3        1 37A      0.039100
      4 O2          1.9880   -0.3230    1.0000 os        1 37A     -0.442600
      5 C5          0.6060    0.3440    2.7730 c3        1 37A      0.114100
      6 C7          1.4420    1.2370    3.6990 c3        1 37A      0.059000
      7 N1          2.8870    0.9970    3.5680 n         1 37A     -0.421800
      8 C21         3.6830    1.8520    4.2850 c         1 37A      0.626100
      9 O1          3.3710    2.9340    4.7870 o         1 37A     -0.461100
     10 N2          5.1880    1.5160    4.4870 n4        1 37A     -0.438300
     11 O4          5.9380    2.6380    4.5230 oh        1 37A     -0.341300
     12 C3          3.3760   -0.2580    3.0220 c3        1 37A      0.015000
     13 O3          1.0630   -1.0160    2.9090 os        1 37A     -0.373600
     14 C1          2.3010   -1.0310    2.2150 c3        1 37A      0.330900
     15 N3         -0.0350   -0.3240   -0.9200 n4        1 37A     -0.665800
     16 C12        -0.7420    0.3430   -2.0820 c3        1 37A      0.185100
     17 C13        -0.0190    1.5520   -2.5460 ca        1 37A     -0.222300
     18 C15         1.1710    1.4210   -3.2760 ca        1 37A     -0.095000
     19 C19         1.8060    2.5460   -3.7850 ca        1 37A     -0.126500
     20 C17         1.2610    3.8280   -3.5860 cp        1 37A      0.055000
     21 C16         0.0670    3.9500   -2.8540 ca        1 37A     -0.126500
     22 C14        -0.5660    2.8250   -2.3370 ca        1 37A     -0.095000
     23 C18         1.9140    5.0060   -4.1430 cp        1 37A     -0.097000
     24 C11         1.9150    6.2190   -3.4370 ca        1 37A     -0.103500
     25 C2          2.5320    7.3450   -3.9760 ca        1 37A     -0.124000
     26 C20         2.5370    4.9440   -5.3990 ca        1 37A     -0.103500
     27 C10         3.1470    6.0750   -5.9370 ca        1 37A     -0.124000
     28 C4          3.1480    7.2760   -5.2270 ca        1 37A     -0.090000
     29 H6          1.3190    1.6520    1.0670 h1        1 37A      0.143700
     30 H5         -0.4830    0.3670    3.0380 h1        1 37A      0.170700
     31 H71         1.1280    1.0290    4.7650 h1        1 37A      0.115200
     32 H72         1.2420    2.3250    3.4710 h1        1 37A      0.115200
     33 HN2         5.2980    0.9900    5.3760 hn        1 37A      0.486800
     34 HO4         5.4830    3.3270    5.0750 ho        1 37A      0.502000
     35 H31         4.2310   -0.0490    2.3150 h1        1 37A      0.089700
     36 H32         3.7150   -0.9440    3.8510 h1        1 37A      0.089700
     37 H1          2.6010   -2.0800    1.9650 h2        1 37A      0.170700
     38 HN3        -0.3730   -1.2920   -0.8420 hn        1 37A      0.469800
     39 H121       -1.7920    0.5880   -1.7460 hx        1 37A      0.122200
     40 H122       -0.7880   -0.4300   -2.9050 hx        1 37A      0.122200
     41 H15         1.5920    0.4230   -3.4750 ha        1 37A      0.138500
     42 H19         2.7390    2.4360   -4.3620 ha        1 37A      0.166000
     43 H16        -0.3860    4.9460   -2.7120 ha        1 37A      0.166000
     44 H14        -1.5170    2.9380   -1.7900 ha        1 37A      0.138500
     45 H11         1.4310    6.2830   -2.4510 ha        1 37A      0.132500
     46 H2          2.5280    8.2940   -3.4170 ha        1 37A      0.151500
     47 H20         2.5270    4.0050   -5.9740 ha        1 37A      0.132500
     48 H10         3.6250    6.0200   -6.9280 ha        1 37A      0.151500
     49 H4          3.6280    8.1700   -5.6550 ha        1 37A      0.155000
     50 H22         5.5800    0.9550    3.7050 hn        1 37A      0.486800
     51 H321        0.9770   -0.3410   -1.1110 hn        1 37A      0.469800
@<TRIPOS>BOND
     1    1    2 2   
     2    2    3 1   
     3    2   15 1   
     4    3    4 1   
     5    3    5 1   
     6    3   29 1   
     7    4   14 1   
     8    5    6 1   
     9    5   13 1   
    10    5   30 1   
    11    6    7 1   
    12    6   31 1   
    13    6   32 1   
    14    7    8 1   
    15    7   12 1   
    16    8    9 2   
    17    8   10 1   
    18   10   11 1   
    19   10   33 1   
    20   10   50 1   
    21   11   34 1   
    22   12   14 1   
    23   12   35 1   
    24   12   36 1   
    25   13   14 1   
    26   14   37 1   
    27   15   16 1   
    28   15   38 1   
    29   15   51 1   
    30   16   17 1   
    31   16   39 1   
    32   16   40 1   
    33   17   18 ar  
    34   17   22 ar  
    35   18   19 ar  
    36   18   41 1   
    37   19   20 ar  
    38   19   42 1   
    39   20   21 ar  
    40   20   23 1   
    41   21   22 ar  
    42   21   43 1   
    43   22   44 1   
    44   23   24 ar  
    45   23   26 ar  
    46   24   25 ar  
    47   24   45 1   
    48   25   28 ar  
    49   25   46 1   
    50   26   27 ar  
    51   26   47 1   
    52   27   28 ar  
    53   27   48 1   
    54   28   49 1   
@<TRIPOS>SUBSTRUCTURE
     1 37A         1 TEMP              0 ****  ****    0 ROOT
