@<TRIPOS>MOLECULE
37A
   49    45     1     0     0
SMALL
bcc


@<TRIPOS>ATOM
      1 O6         -2.5400    0.8840    1.6060 o         1 37A     -0.378000
      2 C9         -1.4920    0.3370    1.5520 c1        1 37A      0.299000
      3 C6         -0.9560   -0.2740    2.7050 c2        1 37A     -0.016000
      4 O2         -0.5320   -1.7050    2.4160 os        1 37A     -0.296000
      5 C5         -2.0230   -0.4830    3.7610 c3        1 37A      0.003000
      6 C7         -1.3130   -0.3390    5.1220 c3        1 37A     -0.052000
      7 N1         -0.5840   -1.5190    5.5530 n         1 37A     -0.312000
      8 C21         0.1320   -1.5580    6.8070 c2        1 37A      0.297000
      9 O1          0.1350   -0.5860    7.5340 o         1 37A     -0.366000
     10 N2          0.7750   -2.7750    7.2290 n         1 37A     -0.143000
     11 O4          1.5120   -2.7990    8.3910 oh        1 37A     -0.245000
     12 C3         -0.6190   -2.6750    4.6380 c3        1 37A     -0.076000
     13 O3         -2.3830   -1.6270    3.4620 os        1 37A     -0.265000
     14 C1         -1.4310   -2.4540    3.3690 c3        1 37A      0.136000
     15 N3         -0.7800    0.2590    0.2940 n3        1 37A     -0.352000
     16 C12        -1.4860   -0.0890   -0.9150 c3        1 37A      0.008000
     17 C13        -0.7200    0.4550   -2.1200 c2        1 37A     -0.110000
     18 C15        -1.3360    1.3580   -2.9890 c2        1 37A     -0.110000
     19 C19        -0.6620    1.8020   -4.1270 c1        1 37A     -0.120000
     20 C17         0.6140    1.3470   -4.3930 c1        1 37A     -0.035000
     21 C16         1.2320    0.4380   -3.5180 c1        1 37A     -0.119500
     22 C14         0.5620   -0.0010   -2.3900 c1        1 37A     -0.123000
     23 C18         1.3000    1.7970   -5.5420 c1        1 37A     -0.035000
     24 C11         2.0690    2.9660   -5.4850 c1        1 37A     -0.125750
     25 C2          2.8280    3.3550   -6.5920 c1        1 37A     -0.125750
     26 C20         1.2930    1.0220   -6.7030 c1        1 37A     -0.119500
     27 C10         2.0480    1.4100   -7.8010 c1        1 37A     -0.125750
     28 C4          2.8200    2.5830   -7.7460 c1        1 37A     -0.125750
     29 H6         -0.2200    0.2370    3.0550 h4        1 37A      0.146000
     30 H5         -2.7520    0.1620    3.6620 h1        1 37A      0.176000
     31 H71        -1.9820   -0.1270    5.7970 h1        1 37A      0.116500
     32 H72        -0.6930    0.3990    5.0650 h1        1 37A      0.116500
     33 HN2         0.6510   -3.5340    6.7600 hn        1 37A      0.197000
     34 HO4         1.3830   -3.5750    8.8090 ho        1 37A      0.243000
     35 H31         0.3090   -2.8980    4.3800 h1        1 37A      0.101000
     36 H32        -0.9930   -3.4250    5.1110 h1        1 37A      0.101000
     37 H1         -1.7250   -3.2940    2.9830 h2        1 37A      0.162000
     38 HN3         0.0900    0.4480    0.2620 hn        1 37A      0.238000
     39 H121       -1.5510   -1.0430   -0.9840 h1        1 37A      0.110500
     40 H122       -2.3890    0.3020   -0.8940 h1        1 37A      0.110500
     41 H15        -2.2140    1.6710   -2.8050 ha        1 37A      0.142000
     42 H19        -1.0940    2.4370   -4.7380 ha        1 37A      0.139000
     43 H16         2.1330    0.1160   -3.7060 ha        1 37A      0.135500
     44 H14         0.9910   -0.6290   -1.7870 ha        1 37A      0.130000
     45 H11         2.0750    3.5150   -4.6640 ha        1 37A      0.133500
     46 H2          3.3750    4.1860   -6.5530 ha        1 37A      0.133500
     47 H20         0.7680    0.2220   -6.7420 ha        1 37A      0.135500
     48 H10         2.0420    0.8550   -8.6320 ha        1 37A      0.133500
     49 H4          3.3350    2.8460   -8.4970 ha        1 37A      0.133500
@<TRIPOS>BOND
     1    1    2 1   
     2    2   15 1   
     3    3    4 1   
     4    3    5 1   
     5    3   29 1   
     6    4   14 1   
     7    5    6 1   
     8    5   13 1   
     9    5   30 1   
    10    6    7 1   
    11    6   31 1   
    12    6   32 1   
    13    7    8 1   
    14    7   12 1   
    15    8    9 1   
    16    8   10 1   
    17   10   11 1   
    18   10   33 1   
    19   11   34 1   
    20   12   14 1   
    21   12   35 1   
    22   12   36 1   
    23   13   14 1   
    24   14   37 1   
    25   15   16 1   
    26   15   38 1   
    27   16   17 1   
    28   16   39 1   
    29   16   40 1   
    30   17   18 1   
    31   17   22 1   
    32   18   19 1   
    33   18   41 1   
    34   19   42 1   
    35   20   21 1   
    36   21   43 1   
    37   22   44 1   
    38   23   26 1   
    39   24   25 1   
    40   24   45 1   
    41   25   46 1   
    42   26   47 1   
    43   27   28 1   
    44   27   48 1   
    45   28   49 1   
@<TRIPOS>SUBSTRUCTURE
     1 37A         1 TEMP              0 ****  ****    0 ROOT
