@<TRIPOS>MOLECULE
37B
   48    49     1     0     0
SMALL
bcc


@<TRIPOS>ATOM
      1 CAO         1.4050   -0.6140   -0.5940 c3        1 37B     -0.142700
      2 CAP         1.5880   -1.7040    0.4880 c         1 37B      0.892600
      3 OAY         2.1570   -1.4030    1.5720 o         1 37B     -0.844300
      4 OAX         1.2230   -2.9050    0.2380 o         1 37B     -0.844300
      5 CAE         1.5740   -1.1620   -1.9900 c3        1 37B     -0.376600
      6 PAD         3.1450   -1.1630   -2.5640 p5        1 37B      1.244400
      7 OAF         3.2630   -2.2520   -3.5850 o         1 37B     -0.861500
      8 OAG         3.7030    0.1850   -2.7850 o         1 37B     -0.861500
      9 CAB         4.0670   -1.9120   -1.2120 c3        1 37B     -0.113700
     10 NAC         3.6640   -3.3220   -1.1430 n4        1 37B     -0.835600
     11 CAA         5.5030   -1.6840   -1.6190 c3        1 37B     -0.100400
     12 CAH         6.5020   -2.1040   -0.5610 c3        1 37B     -0.039100
     13 CAI         7.8970   -1.7240   -0.9170 ca        1 37B     -0.063300
     14 CAJ         8.8880   -2.7020   -1.0550 ca        1 37B     -0.125500
     15 CAK        10.1980   -2.3410   -1.3680 ca        1 37B     -0.132500
     16 CAL        10.5300   -0.9990   -1.5460 ca        1 37B     -0.143000
     17 CAM         9.5460   -0.0180   -1.4120 ca        1 37B     -0.132500
     18 CAN         8.2370   -0.3770   -1.0990 ca        1 37B     -0.125500
     19 CAQ         0.0260    0.0170   -0.4020 c3        1 37B     -0.017100
     20 CAR         0.0460    1.3070    0.3440 ca        1 37B     -0.057300
     21 CAS        -0.7020    2.3960   -0.1210 ca        1 37B     -0.130000
     22 CAT        -0.7200    3.5960    0.5870 ca        1 37B     -0.142000
     23 CAU         0.0090    3.7230    1.7680 ca        1 37B     -0.153000
     24 CAV         0.7600    2.6430    2.2350 ca        1 37B     -0.142000
     25 CAW         0.7810    1.4420    1.5300 ca        1 37B     -0.130000
     26 HAO1        2.1960    0.1720   -0.4340 hc        1 37B      0.061700
     27 HAE1        1.1250   -2.1900   -2.0190 hc        1 37B      0.084200
     28 HAE2        0.9630   -0.5510   -2.7060 hc        1 37B      0.084200
     29 HAB1        3.8600   -1.4220   -0.2230 hx        1 37B      0.136700
     30 HAC2        3.5210   -3.6400   -2.1230 hn        1 37B      0.453133
     31 HAC1        4.3720   -3.8910   -0.6910 hn        1 37B      0.453133
     32 HAA2        5.5980   -0.5770   -1.8240 hc        1 37B      0.093200
     33 HAA1        5.7010   -2.2090   -2.5920 hc        1 37B      0.093200
     34 HAH1        6.4460   -3.2140   -0.3990 hc        1 37B      0.041200
     35 HAH2        6.2300   -1.6140    0.4140 hc        1 37B      0.041200
     36 HAJ1        8.6330   -3.7630   -0.9180 ha        1 37B      0.137000
     37 HAK1       10.9690   -3.1170   -1.4750 ha        1 37B      0.123500
     38 HAL1       11.5620   -0.7140   -1.7950 ha        1 37B      0.120000
     39 HAM1        9.8020    1.0410   -1.5580 ha        1 37B      0.123500
     40 HAN1        7.4600    0.3980   -0.9990 ha        1 37B      0.137000
     41 HAQ2       -0.4600    0.1830   -1.4010 hc        1 37B      0.045700
     42 HAQ1       -0.6300   -0.7050    0.1580 hc        1 37B      0.045700
     43 HAS1       -1.2740    2.3060   -1.0560 ha        1 37B      0.156500
     44 HAT1       -1.3080    4.4450    0.2100 ha        1 37B      0.114500
     45 HAU1       -0.0030    4.6690    2.3250 ha        1 37B      0.110000
     46 HAV1        1.3410    2.7390    3.1630 ha        1 37B      0.114500
     47 HAW1        1.3800    0.5820    1.8920 ha        1 37B      0.156500
     48 HAC3        2.7600   -3.4010   -0.6110 hn        1 37B      0.453133
@<TRIPOS>BOND
     1    1    2 1   
     2    1    5 1   
     3    1   19 1   
     4    1   26 1   
     5    2    3 1   
     6    2    4 1   
     7    5    6 1   
     8    5   27 1   
     9    5   28 1   
    10    6    7 1   
    11    6    8 1   
    12    6    9 1   
    13    9   10 1   
    14    9   11 1   
    15    9   29 1   
    16   10   30 1   
    17   10   31 1   
    18   10   48 1   
    19   11   12 1   
    20   11   32 1   
    21   11   33 1   
    22   12   13 1   
    23   12   34 1   
    24   12   35 1   
    25   13   14 ar  
    26   13   18 ar  
    27   14   15 ar  
    28   14   36 1   
    29   15   16 ar  
    30   15   37 1   
    31   16   17 ar  
    32   16   38 1   
    33   17   18 ar  
    34   17   39 1   
    35   18   40 1   
    36   19   20 1   
    37   19   41 1   
    38   19   42 1   
    39   20   21 ar  
    40   20   25 ar  
    41   21   22 ar  
    42   21   43 1   
    43   22   23 ar  
    44   22   44 1   
    45   23   24 ar  
    46   23   45 1   
    47   24   25 ar  
    48   24   46 1   
    49   25   47 1   
@<TRIPOS>SUBSTRUCTURE
     1 37B         1 TEMP              0 ****  ****    0 ROOT
