@<TRIPOS>MOLECULE
37B
   48    49     1     0     0
SMALL
bcc


@<TRIPOS>ATOM
      1 CAO         1.4350   -0.4890   -0.5310 c3        1 37B     -0.168700
      2 CAP         1.6410   -1.5450    0.5990 c         1 37B      0.896600
      3 OAY         2.4120   -1.2340    1.5510 o         1 37B     -0.831800
      4 OAX         1.0840   -2.6730    0.4780 o         1 37B     -0.831800
      5 CAE         1.6470   -1.1120   -1.8990 c3        1 37B     -0.428600
      6 PAD         3.2150   -1.0420   -2.3740 p5        1 37B      1.516100
      7 OAF         3.2600   -1.9720   -3.7030 oh        1 37B     -0.792400
      8 OAG         3.7320    0.2710   -2.7620 o         1 37B     -0.872300
      9 CAB         4.1430   -1.8260   -1.2180 c3        1 37B     -0.167700
     10 NAC         3.7160   -3.2110   -1.1200 n3        1 37B     -0.924800
     11 CAA         5.5930   -1.6450   -1.6530 c3        1 37B     -0.078400
     12 CAH         6.5830   -2.1010   -0.6040 c3        1 37B     -0.036100
     13 CAI         7.9830   -1.7400   -0.9620 ca        1 37B     -0.063300
     14 CAJ         8.9360   -2.7360   -1.2030 ca        1 37B     -0.126500
     15 CAK        10.2500   -2.3930   -1.5200 ca        1 37B     -0.133500
     16 CAL        10.6240   -1.0520   -1.5990 ca        1 37B     -0.145000
     17 CAM         9.6790   -0.0540   -1.3610 ca        1 37B     -0.133500
     18 CAN         8.3660   -0.3940   -1.0430 ca        1 37B     -0.126500
     19 CAQ         0.0340    0.0950   -0.3990 c3        1 37B     -0.016100
     20 CAR        -0.0370    1.3310    0.4300 ca        1 37B     -0.059300
     21 CAS        -0.8850    2.3760    0.0410 ca        1 37B     -0.130500
     22 CAT        -0.9940    3.5290    0.8180 ca        1 37B     -0.142000
     23 CAU        -0.2540    3.6510    1.9920 ca        1 37B     -0.153000
     24 CAV         0.5960    2.6160    2.3840 ca        1 37B     -0.142000
     25 CAW         0.7060    1.4620    1.6110 ca        1 37B     -0.130500
     26 HAO1        2.1940    0.3300   -0.3940 hc        1 37B      0.051700
     27 HAE1        1.0100   -0.5800   -2.6550 hc        1 37B      0.106700
     28 HAE2        1.2260   -2.1540   -1.8480 hc        1 37B      0.106700
     29 HAF1        3.2720   -2.9140   -3.5800 ho        1 37B      0.458000
     30 HAB1        4.0340   -1.3080   -0.2090 h1        1 37B      0.122700
     31 HAC2        4.4140   -3.7610   -0.6560 hn        1 37B      0.373800
     32 HAC1        2.8690   -3.2540   -0.5710 hn        1 37B      0.373800
     33 HAA2        5.7580   -2.1980   -2.6150 hc        1 37B      0.067200
     34 HAA1        5.7410   -0.5490   -1.8670 hc        1 37B      0.067200
     35 HAH1        6.3220   -1.6240    0.3810 hc        1 37B      0.054200
     36 HAH2        6.5040   -3.2120   -0.4620 hc        1 37B      0.054200
     37 HAJ1        8.6460   -3.7950   -1.1440 ha        1 37B      0.137000
     38 HAK1       10.9910   -3.1820   -1.7080 ha        1 37B      0.122000
     39 HAL1       11.6590   -0.7820   -1.8500 ha        1 37B      0.119000
     40 HAM1        9.9690    1.0050   -1.4250 ha        1 37B      0.122000
     41 HAN1        7.6190    0.3940   -0.8590 ha        1 37B      0.137000
     42 HAQ2       -0.3850    0.3210   -1.4170 hc        1 37B      0.047700
     43 HAQ1       -0.6340   -0.6850    0.0630 hc        1 37B      0.047700
     44 HAS1       -1.4690    2.2890   -0.8870 ha        1 37B      0.157500
     45 HAT1       -1.6610    4.3420    0.5010 ha        1 37B      0.115500
     46 HAU1       -0.3370    4.5590    2.6040 ha        1 37B      0.110000
     47 HAV1        1.1840    2.7080    3.3080 ha        1 37B      0.115500
     48 HAW1        1.3830    0.6400    1.9190 ha        1 37B      0.157500
@<TRIPOS>BOND
     1    1    2 1   
     2    1    5 1   
     3    1   19 1   
     4    1   26 1   
     5    2    3 1   
     6    2    4 1   
     7    5    6 1   
     8    5   27 1   
     9    5   28 1   
    10    6    7 1   
    11    6    8 2   
    12    6    9 1   
    13    7   29 1   
    14    9   10 1   
    15    9   11 1   
    16    9   30 1   
    17   10   31 1   
    18   10   32 1   
    19   11   12 1   
    20   11   33 1   
    21   11   34 1   
    22   12   13 1   
    23   12   35 1   
    24   12   36 1   
    25   13   14 ar  
    26   13   18 ar  
    27   14   15 ar  
    28   14   37 1   
    29   15   16 ar  
    30   15   38 1   
    31   16   17 ar  
    32   16   39 1   
    33   17   18 ar  
    34   17   40 1   
    35   18   41 1   
    36   19   20 1   
    37   19   42 1   
    38   19   43 1   
    39   20   21 ar  
    40   20   25 ar  
    41   21   22 ar  
    42   21   44 1   
    43   22   23 ar  
    44   22   45 1   
    45   23   24 ar  
    46   23   46 1   
    47   24   25 ar  
    48   24   47 1   
    49   25   48 1   
@<TRIPOS>SUBSTRUCTURE
     1 37B         1 TEMP              0 ****  ****    0 ROOT
