@<TRIPOS>MOLECULE
37B
   48    49     1     0     0
SMALL
bcc


@<TRIPOS>ATOM
      1 CAO         1.4050   -0.6230   -0.5930 c3        1 37B     -0.142700
      2 CAP         1.5930   -1.7350    0.4670 c         1 37B      0.892600
      3 OAY         2.1610   -1.4540    1.5560 o         1 37B     -0.844300
      4 OAX         1.2320   -2.9320    0.1920 o         1 37B     -0.844300
      5 CAE         1.5750   -1.1420   -1.9990 c3        1 37B     -0.376600
      6 PAD         3.1450   -1.1260   -2.5750 p5        1 37B      1.244400
      7 OAF         3.2660   -2.1920   -3.6180 o         1 37B     -0.861500
      8 OAG         3.6980    0.2290   -2.7680 o         1 37B     -0.861500
      9 CAB         4.0710   -1.8990   -1.2400 c3        1 37B     -0.113700
     10 NAC         3.6720   -3.3120   -1.1990 nz        1 37B     -0.835600
     11 CAA         5.5060   -1.6580   -1.6430 c3        1 37B     -0.100400
     12 CAH         6.5070   -2.0960   -0.5950 c3        1 37B     -0.039100
     13 CAI         7.9000   -1.7030   -0.9440 ca        1 37B     -0.063300
     14 CAJ         8.8950   -2.6750   -1.1010 ca        1 37B     -0.125500
     15 CAK        10.2030   -2.3020   -1.4070 ca        1 37B     -0.132500
     16 CAL        10.5300   -0.9550   -1.5590 ca        1 37B     -0.143000
     17 CAM         9.5430    0.0180   -1.4050 ca        1 37B     -0.132500
     18 CAN         8.2350   -0.3510   -1.0980 ca        1 37B     -0.125500
     19 CAQ         0.0240   -0.0010   -0.3860 c3        1 37B     -0.017100
     20 CAR         0.0410    1.2730    0.3860 ca        1 37B     -0.057300
     21 CAS        -0.7110    2.3690   -0.0560 ca        1 37B     -0.130000
     22 CAT        -0.7320    3.5550    0.6770 ca        1 37B     -0.142000
     23 CAU        -0.0020    3.6590    1.8590 ca        1 37B     -0.153000
     24 CAV         0.7520    2.5730    2.3030 ca        1 37B     -0.142000
     25 CAW         0.7760    1.3860    1.5740 ca        1 37B     -0.130000
     26 HAO1        2.1940    0.1620   -0.4170 hc        1 37B      0.061700
     27 HAE1        1.1290   -2.1710   -2.0490 hc        1 37B      0.084200
     28 HAE2        0.9610   -0.5190   -2.7020 hc        1 37B      0.084200
     29 HAB1        3.8620   -1.4300   -0.2400 hx        1 37B      0.136700
     30 HAC2        3.5300   -3.6100   -2.1850 hn        1 37B      0.453133
     31 HAC1        4.3830   -3.8870   -0.7600 hn        1 37B      0.453133
     32 HAA2        5.5960   -0.5460   -1.8250 hc        1 37B      0.093200
     33 HAA1        5.7050   -2.1620   -2.6270 hc        1 37B      0.093200
     34 HAH1        6.2340   -1.6270    0.3910 hc        1 37B      0.041200
     35 HAH2        6.4550   -3.2090   -0.4550 hc        1 37B      0.041200
     36 HAJ1        8.6440   -3.7390   -0.9850 ha        1 37B      0.137000
     37 HAK1       10.9770   -3.0730   -1.5300 ha        1 37B      0.123500
     38 HAL1       11.5600   -0.6610   -1.8020 ha        1 37B      0.120000
     39 HAM1        9.7940    1.0820   -1.5290 ha        1 37B      0.123500
     40 HAN1        7.4550    0.4180   -0.9830 ha        1 37B      0.137000
     41 HAQ2       -0.4640    0.1840   -1.3820 hc        1 37B      0.045700
     42 HAQ1       -0.6290   -0.7370    0.1600 hc        1 37B      0.045700
     43 HAS1       -1.2840    2.2970   -0.9920 ha        1 37B      0.156500
     44 HAT1       -1.3230    4.4090    0.3180 ha        1 37B      0.114500
     45 HAU1       -0.0170    4.5940    2.4360 ha        1 37B      0.110000
     46 HAV1        1.3340    2.6520    3.2320 ha        1 37B      0.114500
     47 HAW1        1.3780    0.5210    1.9170 ha        1 37B      0.156500
     48 HAC3        2.7700   -3.4050   -0.6690 hn        1 37B      0.453133
@<TRIPOS>BOND
     1    1    2 1   
     2    1    5 1   
     3    1   19 1   
     4    1   26 1   
     5    2    3 1   
     6    2    4 1   
     7    5    6 1   
     8    5   27 1   
     9    5   28 1   
    10    6    7 1   
    11    6    8 1   
    12    6    9 1   
    13    9   10 1   
    14    9   11 1   
    15    9   29 1   
    16   10   30 1   
    17   10   31 1   
    18   10   48 1   
    19   11   12 1   
    20   11   32 1   
    21   11   33 1   
    22   12   13 1   
    23   12   34 1   
    24   12   35 1   
    25   13   14 ar  
    26   13   18 ar  
    27   14   15 ar  
    28   14   36 1   
    29   15   16 ar  
    30   15   37 1   
    31   16   17 ar  
    32   16   38 1   
    33   17   18 ar  
    34   17   39 1   
    35   18   40 1   
    36   19   20 1   
    37   19   41 1   
    38   19   42 1   
    39   20   21 ar  
    40   20   25 ar  
    41   21   22 ar  
    42   21   43 1   
    43   22   23 ar  
    44   22   44 1   
    45   23   24 ar  
    46   23   45 1   
    47   24   25 ar  
    48   24   46 1   
    49   25   47 1   
@<TRIPOS>SUBSTRUCTURE
     1 37B         1 TEMP              0 ****  ****    0 ROOT
