@<TRIPOS>MOLECULE
37D
   25    26     1     0     0
SMALL
bcc


@<TRIPOS>ATOM
      1 C1         -3.6520    0.0840   -0.6840 cc        1 37D     -0.269300
      2 C2         -3.1480    1.0150    0.2040 cd        1 37D      0.260600
      3 C4         -1.4930   -0.4290   -0.2070 cd        1 37D      0.290200
      4 C5         -2.5860   -0.8520   -0.9500 cc        1 37D     -0.229300
      5 C6         -0.1650   -0.9470   -0.0570 cd        1 37D     -0.065800
      6 C9          2.0500   -1.4120    0.2080 cc        1 37D      0.372600
      7 C10         1.0950   -0.3190    0.0810 cc        1 37D     -0.277900
      8 C11         1.4310    1.0870    0.0800 c         1 37D      0.685700
      9 C13         0.8000    3.2890   -0.5640 c3        1 37D      0.128700
     10 C15         3.5100   -1.2760    0.3710 c3        1 37D     -0.143400
     11 O14         2.4360    1.6360    0.5450 o         1 37D     -0.551000
     12 O12         0.5080    1.8910   -0.5420 os        1 37D     -0.428900
     13 N8          1.3840   -2.6020    0.1390 nd        1 37D     -0.511800
     14 N7          0.0910   -2.3230   -0.0110 na        1 37D     -0.003600
     15 O3         -1.8240    0.7250    0.5170 os        1 37D     -0.324800
     16 H1         -4.6500    0.0460   -1.1120 ha        1 37D      0.167000
     17 H2         -3.5380    1.9000    0.6990 h4        1 37D      0.059100
     18 H5         -2.6410   -1.7060   -1.6190 ha        1 37D      0.163000
     19 H13        -0.0710    3.7290   -1.1090 h1        1 37D      0.049700
     20 H13A        0.8730    3.6810    0.4790 h1        1 37D      0.049700
     21 H13B        1.7580    3.4700   -1.1090 h1        1 37D      0.049700
     22 H15         3.8970   -1.9940    1.1360 hc        1 37D      0.066033
     23 H15A        4.0230   -1.4850   -0.6010 hc        1 37D      0.066033
     24 H15B        3.7580   -0.2330    0.6940 hc        1 37D      0.066033
     25 HN7        -0.5810   -3.0520   -0.0760 hn        1 37D      0.330700
@<TRIPOS>BOND
     1    1    2 2   
     2    1    4 1   
     3    1   16 1   
     4    2   15 1   
     5    2   17 1   
     6    3    4 2   
     7    3    5 1   
     8    3   15 1   
     9    4   18 1   
    10    5    7 2   
    11    5   14 1   
    12    6    7 1   
    13    6   10 1   
    14    6   13 2   
    15    7    8 1   
    16    8   11 2   
    17    8   12 1   
    18    9   12 1   
    19    9   19 1   
    20    9   20 1   
    21    9   21 1   
    22   10   22 1   
    23   10   23 1   
    24   10   24 1   
    25   13   14 1   
    26   14   25 1   
@<TRIPOS>SUBSTRUCTURE
     1 37D         1 TEMP              0 ****  ****    0 ROOT
