@<TRIPOS>MOLECULE
37D
   25    26     1     0     0
SMALL
bcc


@<TRIPOS>ATOM
      1 C1         -0.1920   -0.2200    0.0800 cc        1 37D     -0.269300
      2 C2          1.1830   -0.3600    0.0890 cd        1 37D      0.260600
      3 C4          0.5460   -0.2190    2.2260 cd        1 37D      0.290200
      4 C5         -0.6060   -0.1270    1.4580 cc        1 37D     -0.229300
      5 C6          0.7730   -0.1870    3.6410 cd        1 37D     -0.065800
      6 C9          1.4070   -0.3810    5.8210 cc        1 37D      0.372600
      7 C10         1.6740   -0.8840    4.4800 cc        1 37D     -0.277900
      8 C11         2.6510   -1.8960    4.1460 c         1 37D      0.685700
      9 C13         3.3370   -3.5770    2.6100 c3        1 37D      0.128700
     10 C15         2.0900   -0.8030    7.0590 c3        1 37D     -0.143400
     11 O14         3.6540   -2.2340    4.7860 o         1 37D     -0.551000
     12 O12         2.3960   -2.5680    2.9770 os        1 37D     -0.428900
     13 N8          0.4040    0.5440    5.7640 nd        1 37D     -0.511800
     14 N7          0.0420    0.6550    4.4870 na        1 37D     -0.003600
     15 O3          1.6660   -0.3610    1.3940 os        1 37D     -0.324800
     16 H1         -0.8500   -0.1870   -0.7840 ha        1 37D      0.167000
     17 H2          1.9540   -0.4680   -0.6700 h4        1 37D      0.059100
     18 H5         -1.6280   -0.0230    1.8100 ha        1 37D      0.163000
     19 H13         4.3490   -3.1240    2.4720 h1        1 37D      0.049700
     20 H13A        3.3770   -4.3670    3.3980 h1        1 37D      0.049700
     21 H13B        2.9310   -3.9760    1.6480 h1        1 37D      0.049700
     22 H15         2.3200    0.0760    7.7100 hc        1 37D      0.066033
     23 H15A        1.4350   -1.5060    7.6340 hc        1 37D      0.066033
     24 H15B        3.0460   -1.3270    6.8030 hc        1 37D      0.066033
     25 HN7        -0.6750    1.2880    4.2170 hn        1 37D      0.330700
@<TRIPOS>BOND
     1    1    2 2   
     2    1    4 1   
     3    1   16 1   
     4    2   15 1   
     5    2   17 1   
     6    3    4 2   
     7    3    5 1   
     8    3   15 1   
     9    4   18 1   
    10    5    7 2   
    11    5   14 1   
    12    6    7 1   
    13    6   10 1   
    14    6   13 2   
    15    7    8 1   
    16    8   11 2   
    17    8   12 1   
    18    9   12 1   
    19    9   19 1   
    20    9   20 1   
    21    9   21 1   
    22   10   22 1   
    23   10   23 1   
    24   10   24 1   
    25   13   14 1   
    26   14   25 1   
@<TRIPOS>SUBSTRUCTURE
     1 37D         1 TEMP              0 ****  ****    0 ROOT
