@<TRIPOS>MOLECULE
37D
   25    26     1     0     0
SMALL
bcc


@<TRIPOS>ATOM
      1 C1         -0.1240   -0.2160    0.0480 cc        1 37D     -0.269300
      2 C2          1.2480   -0.3730    0.0810 cd        1 37D      0.260600
      3 C4          0.5780   -0.2120    2.2060 cd        1 37D      0.290200
      4 C5         -0.5600   -0.1090    1.4190 cc        1 37D     -0.229300
      5 C6          0.7820   -0.1750    3.6240 cd        1 37D     -0.065800
      6 C9          1.3780   -0.3650    5.8160 cc        1 37D      0.372600
      7 C10         1.6590   -0.8800    4.4820 cc        1 37D     -0.277900
      8 C11         2.6250   -1.9090    4.1700 c         1 37D      0.685700
      9 C13         3.3110   -3.6090    2.6540 c3        1 37D      0.128700
     10 C15         2.0340   -0.7910    7.0670 c3        1 37D     -0.143400
     11 O14         3.6120   -2.2600    4.8280 o         1 37D     -0.551000
     12 O12         2.3800   -2.5830    3.0000 os        1 37D     -0.428900
     13 N8          0.3910    0.5740    5.7370 nd        1 37D     -0.511800
     14 N7          0.0510    0.6840    4.4540 na        1 37D     -0.003600
     15 O3          1.7090   -0.3730    1.3930 os        1 37D     -0.324800
     16 H1         -0.7680   -0.1790   -0.8260 ha        1 37D      0.167000
     17 H2          2.0290   -0.4960   -0.6650 h4        1 37D      0.059100
     18 H5         -1.5860    0.0100    1.7540 ha        1 37D      0.163000
     19 H13         4.3320   -3.1730    2.5310 h1        1 37D      0.049700
     20 H13A        3.3250   -4.3960    3.4460 h1        1 37D      0.049700
     21 H13B        2.9160   -4.0070    1.6870 h1        1 37D      0.049700
     22 H15         2.2680    0.0890    7.7160 hc        1 37D      0.066033
     23 H15A        1.3590   -1.4800    7.6360 hc        1 37D      0.066033
     24 H15B        2.9860   -1.3310    6.8300 hc        1 37D      0.066033
     25 HN7        -0.6510    1.3260    4.1680 hn        1 37D      0.330700
@<TRIPOS>BOND
     1    1    2 2   
     2    1    4 1   
     3    1   16 1   
     4    2   15 1   
     5    2   17 1   
     6    3    4 2   
     7    3    5 1   
     8    3   15 1   
     9    4   18 1   
    10    5    7 2   
    11    5   14 1   
    12    6    7 1   
    13    6   10 1   
    14    6   13 2   
    15    7    8 1   
    16    8   11 2   
    17    8   12 1   
    18    9   12 1   
    19    9   19 1   
    20    9   20 1   
    21    9   21 1   
    22   10   22 1   
    23   10   23 1   
    24   10   24 1   
    25   13   14 1   
    26   14   25 1   
@<TRIPOS>SUBSTRUCTURE
     1 37D         1 TEMP              0 ****  ****    0 ROOT
