@<TRIPOS>MOLECULE
37D
   25    20     1     0     0
SMALL
bcc


@<TRIPOS>ATOM
      1 C1         -1.4880   -0.7340   -3.4080 c1        1 37D     -0.209000
      2 C2         -0.2220   -1.2850   -3.4210 c1        1 37D     -0.064000
      3 C4         -0.8220   -0.9970   -1.3040 c2        1 37D     -0.038000
      4 C5         -1.8570   -0.5570   -2.1040 c1        1 37D     -0.107000
      5 C6         -0.8150   -1.0180    0.0820 c2        1 37D      0.089000
      6 C9         -0.4440   -0.4730    2.1890 c1        1 37D     -0.046000
      7 C10        -0.1890   -0.1190    0.8960 c1        1 37D     -0.220000
      8 C11         0.6590    1.0510    0.4440 c1        1 37D      0.390000
      9 C13         2.7340    2.1290    0.1200 c3        1 37D     -0.062000
     10 C15         0.0340    0.2620    3.4240 c2        1 37D     -0.152000
     11 O14         0.1350    2.1110    0.1670 o         1 37D     -0.381000
     12 O12         2.0560    0.9160    0.3640 os        1 37D     -0.276000
     13 N8         -1.2180   -1.5780    2.1740 n2        1 37D     -0.080000
     14 N7         -1.4490   -1.9170    0.8650 n2        1 37D     -0.145000
     15 O3          0.1840   -1.4440   -2.1220 os        1 37D     -0.125000
     16 H1         -2.0250   -0.5110   -4.1920 DU        1 37D      0.213750
     17 H2          0.2930   -1.5190   -4.2160 DU        1 37D      0.213750
     18 H5         -2.7040   -0.1850   -1.7930 DU        1 37D      0.213750
     19 H13         3.6970    1.9990    0.2600 h1        1 37D      0.089667
     20 H13A        2.5730    2.4140   -0.8060 h1        1 37D      0.089667
     21 H13B        2.4040    2.8180    0.7360 h1        1 37D      0.089667
     22 H15        -0.1430    1.2210    3.3220 ha        1 37D      0.100333
     23 H15A        0.9960    0.1170    3.5380 ha        1 37D      0.100333
     24 H15B       -0.4440   -0.0760    4.2100 ha        1 37D      0.100333
     25 HN7        -1.9440   -2.6260    0.5740 DU        1 37D      0.213750
@<TRIPOS>BOND
     1    1    2 1   
     2    1    4 1   
     3    2   15 1   
     4    3    4 1   
     5    3    5 1   
     6    3   15 1   
     7    5    7 1   
     8    5   14 1   
     9    6    7 1   
    10    6   13 1   
    11    8   11 1   
    12    8   12 1   
    13    9   12 1   
    14    9   19 1   
    15    9   20 1   
    16    9   21 1   
    17   10   22 1   
    18   10   23 1   
    19   10   24 1   
    20   13   14 1   
@<TRIPOS>SUBSTRUCTURE
     1 37D         1 TEMP              0 ****  ****    0 ROOT
