@<TRIPOS>MOLECULE
37E
   33    33     1     0     0
SMALL
bcc


@<TRIPOS>ATOM
      1 C1          0.0510    0.3480    0.1050 c3        1 37E      0.140800
      2 N2         -0.6800    0.9080    1.2230 n7        1 37E     -0.847200
      3 C3          1.5510    0.3190    0.3370 c3        1 37E     -0.094700
      4 C5         -2.0780    1.2170    0.9110 c3        1 37E      0.174500
      5 N10         2.1570    1.6310    0.6160 nz        1 37E     -0.798600
      6 P11         2.2830   -0.2320   -1.2010 p5        1 37E      1.307600
      7 O11         3.7040    0.0810   -0.9270 o         1 37E     -0.805500
      8 O12         1.6110   -1.4500   -1.6580 o         1 37E     -0.805500
      9 O13         1.7180    0.9790   -2.1410 oh        1 37E     -0.812400
     10 C19        -2.9780    1.1260    2.1550 c3        1 37E     -0.077400
     11 C20        -4.4200    1.4050    1.7880 c3        1 37E     -0.077900
     12 C21        -4.5730    2.7620    1.1340 c3        1 37E     -0.078400
     13 C22        -3.6630    2.8930   -0.0690 c3        1 37E     -0.077900
     14 C23        -2.2190    2.6200    0.2960 c3        1 37E     -0.077400
     15 H02        -0.2290   -0.7200   -0.1500 h1        1 37E      0.081200
     16 H03        -0.1570    0.9680   -0.8170 h1        1 37E      0.081200
     17 H04        -0.6370    0.2840    2.0080 hn        1 37E      0.359800
     18 H01         1.8190   -0.3860    1.1650 hx        1 37E      0.109700
     19 H1         -2.4810    0.4750    0.1520 h1        1 37E      0.036700
     20 H05         1.9310    1.9750    1.5450 hn        1 37E      0.456800
     21 H12         1.8150    2.2870   -0.0940 hn        1 37E      0.456800
     22 H2         -2.9040    0.1020    2.6070 hc        1 37E      0.043450
     23 H3         -2.6340    1.8660    2.9240 hc        1 37E      0.043450
     24 H4         -5.0520    1.3590    2.7130 hc        1 37E      0.043950
     25 H5         -4.7900    0.6090    1.0890 hc        1 37E      0.043950
     26 H6         -5.6390    2.9090    0.8180 hc        1 37E      0.042200
     27 H7         -4.3290    3.5660    1.8780 hc        1 37E      0.042200
     28 H8         -3.9920    2.1760   -0.8670 hc        1 37E      0.043950
     29 H9         -3.7480    3.9280   -0.4930 hc        1 37E      0.043950
     30 H10        -1.5830    2.7000   -0.6230 hc        1 37E      0.043450
     31 H11        -1.8620    3.3900    1.0280 hc        1 37E      0.043450
     32 H22         1.2660    0.6940   -2.9280 ho        1 37E      0.457000
     33 H103        3.1850    1.5070    0.4840 hn        1 37E      0.456800
@<TRIPOS>BOND
     1    1    2 1   
     2    1    3 1   
     3    1   15 1   
     4    1   16 1   
     5    2    4 1   
     6    2   17 1   
     7    3    5 1   
     8    3    6 1   
     9    3   18 1   
    10    4   10 1   
    11    4   14 1   
    12    4   19 1   
    13    5   20 1   
    14    5   21 1   
    15    5   33 1   
    16    6    7 1   
    17    6    8 1   
    18    6    9 1   
    19    9   32 1   
    20   10   11 1   
    21   10   22 1   
    22   10   23 1   
    23   11   12 1   
    24   11   24 1   
    25   11   25 1   
    26   12   13 1   
    27   12   26 1   
    28   12   27 1   
    29   13   14 1   
    30   13   28 1   
    31   13   29 1   
    32   14   30 1   
    33   14   31 1   
@<TRIPOS>SUBSTRUCTURE
     1 37E         1 TEMP              0 ****  ****    0 ROOT
