@<TRIPOS>MOLECULE
37E
   31    31     1     0     0
SMALL
bcc


@<TRIPOS>ATOM
      1 C1          0.0710   -0.2010    0.4980 c3        1 37E      0.207800
      2 N2         -0.6820    0.6010    1.4560 n3        1 37E     -0.828200
      3 C3          1.5100    0.1880    0.1770 c3        1 37E     -0.053700
      4 C5         -1.9710    1.0710    0.9600 c3        1 37E      0.193500
      5 N10         2.0490    1.3280    0.8600 n3        1 37E     -0.893800
      6 P11         1.5800    0.4940   -1.6510 p5        1 37E      1.210700
      7 O11         0.3410    1.3020   -1.9680 o         1 37E     -0.943500
      8 O12         2.8870    1.2410   -1.8040 o         1 37E     -0.943500
      9 O13         1.5700   -0.9090   -2.2050 o         1 37E     -0.943500
     10 C19        -2.9040    1.4400    2.1340 c3        1 37E     -0.117400
     11 C20        -4.2870    1.7930    1.6290 c3        1 37E     -0.063400
     12 C21        -4.2400    2.9370    0.6370 c3        1 37E     -0.074400
     13 C22        -3.2920    2.6250   -0.5050 c3        1 37E     -0.063400
     14 C23        -1.9130    2.2620   -0.0070 c3        1 37E     -0.117400
     15 H02        -0.4670   -0.2590   -0.4970 h1        1 37E      0.020200
     16 H03         0.0590   -1.2430    0.9430 h1        1 37E      0.020200
     17 H04        -0.1450    1.3980    1.7450 hn        1 37E      0.361800
     18 H01         2.1400   -0.7290    0.3270 h1        1 37E      0.009700
     19 H1         -2.4580    0.2100    0.4110 h1        1 37E      0.036700
     20 H05         2.6680    1.0360    1.5950 hn        1 37E      0.319800
     21 H12         2.5960    1.8550    0.1920 hn        1 37E      0.319800
     22 H2         -2.4750    2.3110    2.6940 hc        1 37E      0.064700
     23 H3         -2.9800    0.5810    2.8490 hc        1 37E      0.064700
     24 H4         -4.9460    2.0710    2.4930 hc        1 37E      0.017700
     25 H5         -4.7430    0.8940    1.1360 hc        1 37E      0.017700
     26 H6         -3.8990    3.8680    1.1600 hc        1 37E      0.008200
     27 H7         -5.2710    3.1340    0.2410 hc        1 37E      0.008200
     28 H8         -3.7060    1.7760   -1.1090 hc        1 37E      0.017700
     29 H9         -3.2230    3.5150   -1.1840 hc        1 37E      0.017700
     30 H10        -1.4560    3.1440    0.5100 hc        1 37E      0.064700
     31 H11        -1.2310    1.9940   -0.8820 hc        1 37E      0.064700
@<TRIPOS>BOND
     1    1    2 1   
     2    1    3 1   
     3    1   15 1   
     4    1   16 1   
     5    2    4 1   
     6    2   17 1   
     7    3    5 1   
     8    3    6 1   
     9    3   18 1   
    10    4   10 1   
    11    4   14 1   
    12    4   19 1   
    13    5   20 1   
    14    5   21 1   
    15    6    7 1   
    16    6    8 1   
    17    6    9 1   
    18   10   11 1   
    19   10   22 1   
    20   10   23 1   
    21   11   12 1   
    22   11   24 1   
    23   11   25 1   
    24   12   13 1   
    25   12   26 1   
    26   12   27 1   
    27   13   14 1   
    28   13   28 1   
    29   13   29 1   
    30   14   30 1   
    31   14   31 1   
@<TRIPOS>SUBSTRUCTURE
     1 37E         1 TEMP              0 ****  ****    0 ROOT
