@<TRIPOS>MOLECULE
37E
   33    33     1     0     0
SMALL
bcc


@<TRIPOS>ATOM
      1 C1          0.0280   -0.2750    0.3290 c3        1 37E      0.171800
      2 N2         -0.7830    0.2800    1.3950 n3        1 37E     -0.871200
      3 C3          1.4540    0.2740    0.3000 c3        1 37E     -0.092700
      4 C5         -2.0290    0.9090    0.9580 c3        1 37E      0.177500
      5 N10         1.6280    1.6300    0.8490 n4        1 37E     -0.797600
      6 P11         1.9780    0.4110   -1.4170 p5        1 37E      1.304600
      7 O11         3.2360    1.1700   -1.2360 o         1 37E     -0.804000
      8 O12         1.6650   -0.8220   -2.1400 o         1 37E     -0.804000
      9 O13         0.8440    1.4950   -1.8810 oh        1 37E     -0.812400
     10 C19        -3.0000    1.1080    2.1340 c3        1 37E     -0.084400
     11 C20        -4.2990    1.7160    1.6500 c3        1 37E     -0.076400
     12 C21        -4.0650    3.0340    0.9430 c3        1 37E     -0.079400
     13 C22        -3.0780    2.8730   -0.1940 c3        1 37E     -0.076400
     14 C23        -1.7740    2.2670    0.2810 c3        1 37E     -0.084400
     15 H02        -0.4320   -0.0700   -0.6850 h1        1 37E      0.069700
     16 H03         0.1010   -1.3990    0.4330 h1        1 37E      0.069700
     17 H04        -0.9730   -0.4080    2.0960 hn        1 37E      0.373800
     18 H01         2.1410   -0.4190    0.8500 hx        1 37E      0.103700
     19 H1         -2.5540    0.2520    0.1960 h1        1 37E      0.034700
     20 H05         1.5280    1.6550    1.8600 hn        1 37E      0.456800
     21 H12         2.5740    1.9490    0.5450 hn        1 37E      0.456800
     22 H2         -2.5330    1.7770    2.9020 hc        1 37E      0.045700
     23 H3         -3.2150    0.1220    2.6240 hc        1 37E      0.045700
     24 H4         -4.9810    1.8760    2.5260 hc        1 37E      0.045450
     25 H5         -4.8110    1.0030    0.9520 hc        1 37E      0.045450
     26 H6         -3.6730    3.7880    1.6760 hc        1 37E      0.042700
     27 H7         -5.0370    3.4260    0.5450 hc        1 37E      0.042700
     28 H8         -2.8720    3.8730   -0.6590 hc        1 37E      0.045450
     29 H9         -3.5260    2.2210   -0.9890 hc        1 37E      0.045450
     30 H10        -1.2810    2.9640    1.0070 hc        1 37E      0.045700
     31 H11        -1.0870    2.1360   -0.5990 hc        1 37E      0.045700
     32 H22         0.3530    1.2460   -2.6560 ho        1 37E      0.456000
     33 H103        0.9190    2.2330    0.4150 hn        1 37E      0.456800
@<TRIPOS>BOND
     1    1    2 1   
     2    1    3 1   
     3    1   15 1   
     4    1   16 1   
     5    2    4 1   
     6    2   17 1   
     7    3    5 1   
     8    3    6 1   
     9    3   18 1   
    10    4   10 1   
    11    4   14 1   
    12    4   19 1   
    13    5   20 1   
    14    5   21 1   
    15    5   33 1   
    16    6    7 1   
    17    6    8 1   
    18    6    9 1   
    19    9   32 1   
    20   10   11 1   
    21   10   22 1   
    22   10   23 1   
    23   11   12 1   
    24   11   24 1   
    25   11   25 1   
    26   12   13 1   
    27   12   26 1   
    28   12   27 1   
    29   13   14 1   
    30   13   28 1   
    31   13   29 1   
    32   14   30 1   
    33   14   31 1   
@<TRIPOS>SUBSTRUCTURE
     1 37E         1 TEMP              0 ****  ****    0 ROOT
