@<TRIPOS>MOLECULE
37F
   62    66     1     0     0
SMALL
bcc


@<TRIPOS>ATOM
      1 FAD         2.7360    4.3240    0.6950 f         1 37F     -0.222633
      2 CBK         3.4090    3.1620    0.4430 c3        1 37F      0.671100
      3 FAE         4.7280    3.4510    0.7190 f         1 37F     -0.222633
      4 FAF         3.0470    2.3170    1.4660 f         1 37F     -0.222633
      5 CBE         3.1920    2.5820   -0.9610 cc        1 37F     -0.061200
      6 CAP         2.6780    3.4040   -1.9100 cd        1 37F     -0.163200
      7 CBF         2.3730    2.9260   -3.2660 c         1 37F      0.681700
      8 OAC         1.9530    3.6180   -4.1970 o         1 37F     -0.520500
      9 NAX         2.5830    1.5320   -3.4930 n         1 37F     -0.413100
     10 CAN         3.0870    0.7290   -2.5330 cd        1 37F      0.147600
     11 CBC         3.4590    1.2030   -1.2690 cc        1 37F     -0.326200
     12 CAY         4.0210    0.1980   -0.3740 c         1 37F      0.586300
     13 OAB         3.6760   -0.9760   -0.2980 o         1 37F     -0.430100
     14 NAW         5.1700    0.6390    0.5080 n4        1 37F     -0.534200
     15 CBB         6.2140   -0.3760    0.6740 ca        1 37F     -0.035400
     16 CAO         5.9270   -1.5350    1.4110 ca        1 37F     -0.090000
     17 CBD         7.5040   -0.1640    0.1130 ca        1 37F      0.114600
     18 NBJ         7.7490    1.0370   -0.6330 nh        1 37F     -0.662000
     19 CAT         8.7020    1.9210    0.0420 c3        1 37F      0.163800
     20 CAR         9.0100    3.1930   -0.7720 c3        1 37F      0.168800
     21 NBI         9.4060    2.8950   -2.1390 n3        1 37F     -0.734600
     22 CAA         9.7510    4.0750   -2.8970 c3        1 37F      0.155100
     23 CAS         8.4360    2.0490   -2.8140 c3        1 37F      0.168800
     24 CAU         8.1240    0.7640   -2.0220 c3        1 37F      0.163800
     25 CAJ         8.4790   -1.1540    0.3360 ca        1 37F     -0.133000
     26 CAI         8.1920   -2.3010    1.0660 ca        1 37F     -0.071000
     27 CAZ         6.9140   -2.5070    1.6090 cp        1 37F      0.013000
     28 CBA         6.6110   -3.7120    2.3670 cp        1 37F     -0.208300
     29 CAQ         7.5130   -4.2770    3.2450 ca        1 37F     -0.039000
     30 CBG         7.1560   -5.4530    3.9610 ca        1 37F     -0.154300
     31 CAK         8.0430   -6.0700    4.8790 ca        1 37F     -0.110000
     32 CAG         7.6630   -7.2050    5.5540 ca        1 37F     -0.113000
     33 CAH         6.3830   -7.7690    5.3390 ca        1 37F     -0.103000
     34 CAL         5.4970   -7.1990    4.4580 ca        1 37F     -0.166300
     35 CBH         5.8600   -6.0170    3.7380 ca        1 37F      0.406600
     36 NAV         4.9660   -5.4470    2.8490 nb        1 37F     -0.637000
     37 CAM         5.3340   -4.3570    2.2080 ca        1 37F      0.419200
     38 H1          2.4350    4.4670   -1.7230 ha        1 37F      0.209000
     39 H2          3.2090   -0.3490   -2.7840 h4        1 37F      0.194000
     40 H4          4.7880    0.8700    1.4380 hn        1 37F      0.478800
     41 H5          4.9190   -1.6980    1.8330 ha        1 37F      0.167000
     42 H6          9.6710    1.3870    0.2630 h1        1 37F      0.050200
     43 H7          8.2450    2.2340    1.0210 h1        1 37F      0.050200
     44 H8          8.1140    3.8780   -0.7310 h1        1 37F      0.046450
     45 H9          9.8700    3.7170   -0.2670 h1        1 37F      0.046450
     46 H11        10.5670    4.6240   -2.3560 h1        1 37F      0.044033
     47 H12        10.1350    3.7580   -3.9020 h1        1 37F      0.044033
     48 H13         8.8840    4.7760   -3.0470 h1        1 37F      0.044033
     49 H14         7.4690    2.5950   -3.0190 h1        1 37F      0.046450
     50 H15         8.8740    1.7380   -3.8040 h1        1 37F      0.046450
     51 H16         7.2560    0.2470   -2.5170 h1        1 37F      0.050200
     52 H17         9.0180    0.0770   -2.0790 h1        1 37F      0.050200
     53 H18         9.4930   -1.0170   -0.0800 ha        1 37F      0.168000
     54 H19         8.9750   -3.0640    1.2150 ha        1 37F      0.167000
     55 H20         8.5060   -3.8320    3.4140 ha        1 37F      0.142000
     56 H21         9.0360   -5.6230    5.0400 ha        1 37F      0.140000
     57 H22         8.3480   -7.6880    6.2680 ha        1 37F      0.148000
     58 H23         6.1040   -8.6800    5.8930 ha        1 37F      0.150000
     59 H24         4.5010   -7.6420    4.2930 ha        1 37F      0.161000
     60 H25         4.5980   -3.9400    1.4960 h4        1 37F      0.021100
     61 H26         2.3310    1.1580   -4.3890 hn        1 37F      0.369500
     62 HAW2        5.5880    1.4970    0.1060 hn        1 37F      0.478800
@<TRIPOS>BOND
     1    1    2 1   
     2    2    3 1   
     3    2    4 1   
     4    2    5 1   
     5    5    6 2   
     6    5   11 1   
     7    6    7 1   
     8    6   38 1   
     9    7    8 2   
    10    7    9 1   
    11    9   10 1   
    12    9   61 1   
    13   10   11 2   
    14   10   39 1   
    15   11   12 1   
    16   12   13 2   
    17   12   14 1   
    18   14   15 1   
    19   14   40 1   
    20   14   62 1   
    21   15   16 ar  
    22   15   17 ar  
    23   16   27 ar  
    24   16   41 1   
    25   17   18 1   
    26   17   25 ar  
    27   18   19 1   
    28   18   24 1   
    29   19   20 1   
    30   19   42 1   
    31   19   43 1   
    32   20   21 1   
    33   20   44 1   
    34   20   45 1   
    35   21   22 1   
    36   21   23 1   
    37   22   46 1   
    38   22   47 1   
    39   22   48 1   
    40   23   24 1   
    41   23   49 1   
    42   23   50 1   
    43   24   51 1   
    44   24   52 1   
    45   25   26 ar  
    46   25   53 1   
    47   26   27 ar  
    48   26   54 1   
    49   27   28 1   
    50   28   29 ar  
    51   28   37 ar  
    52   29   30 ar  
    53   29   55 1   
    54   30   31 ar  
    55   30   35 ar  
    56   31   32 ar  
    57   31   56 1   
    58   32   33 ar  
    59   32   57 1   
    60   33   34 ar  
    61   33   58 1   
    62   34   35 ar  
    63   34   59 1   
    64   35   36 ar  
    65   36   37 ar  
    66   37   60 1   
@<TRIPOS>SUBSTRUCTURE
     1 37F         1 TEMP              0 ****  ****    0 ROOT
