@<TRIPOS>MOLECULE
37F
   61    65     1     0     0
SMALL
bcc


@<TRIPOS>ATOM
      1 FAD         3.2540    4.0480    0.9960 f         1 37F     -0.226967
      2 CBK         3.7710    2.8880    0.4710 c3        1 37F      0.678100
      3 FAE         5.0930    3.1950    0.2450 f         1 37F     -0.226967
      4 FAF         3.7860    2.0240    1.5340 f         1 37F     -0.226967
      5 CBE         3.0280    2.3790   -0.7720 cc        1 37F     -0.039200
      6 CAP         2.2010    3.2450   -1.4200 cd        1 37F     -0.206200
      7 CBF         1.4240    2.8310   -2.5910 c         1 37F      0.683700
      8 OAC         0.6690    3.5690   -3.2470 o         1 37F     -0.602500
      9 NAX         1.5580    1.4800   -2.9820 ns        1 37F     -0.428100
     10 CAN         2.3880    0.6280   -2.3130 cd        1 37F      0.082600
     11 CBC         3.1600    1.0320   -1.2350 cc        1 37F     -0.255200
     12 CAY         4.0250   -0.0260   -0.6330 c         1 37F      0.691300
     13 OAB         3.5630   -1.1680   -0.4420 o         1 37F     -0.594100
     14 NAW         5.3340    0.3310   -0.3650 ns        1 37F     -0.452100
     15 CBB         6.3350   -0.5150    0.1480 ca        1 37F      0.087600
     16 CAO         6.0130   -1.6670    0.8920 ca        1 37F     -0.140000
     17 CBD         7.7150   -0.1830   -0.0500 ca        1 37F      0.051600
     18 NBJ         8.0540    0.9760   -0.8260 nh        1 37F     -0.637000
     19 CAT         8.4660    2.1030    0.0040 c3        1 37F      0.172300
     20 CAR         8.8270    3.3510   -0.8240 c3        1 37F      0.166800
     21 NBI         9.7640    3.0700   -1.9020 n3        1 37F     -0.733600
     22 CAA        10.0790    4.2450   -2.6810 c3        1 37F      0.157100
     23 CAS         9.3340    1.9520   -2.7280 c3        1 37F      0.166800
     24 CAU         8.9950    0.6950   -1.9030 c3        1 37F      0.172300
     25 CAJ         8.6940   -1.0110    0.5240 ca        1 37F     -0.132000
     26 CAI         8.3550   -2.1480    1.2460 ca        1 37F     -0.135000
     27 CAZ         7.0090   -2.4860    1.4310 cp        1 37F     -0.013000
     28 CBA         6.6460   -3.6800    2.1840 cp        1 37F     -0.156300
     29 CAQ         7.3380   -4.0830    3.3060 ca        1 37F     -0.071000
     30 CBG         6.9390   -5.2620    3.9960 ca        1 37F     -0.148300
     31 CAK         7.6160   -5.7180    5.1560 ca        1 37F     -0.110000
     32 CAG         7.2040   -6.8600    5.7980 ca        1 37F     -0.128000
     33 CAH         6.0990   -7.5940    5.3060 ca        1 37F     -0.123000
     34 CAL         5.4190   -7.1830    4.1870 ca        1 37F     -0.164300
     35 CBH         5.8220   -5.9970    3.4940 ca        1 37F      0.395600
     36 NAV         5.1310   -5.5870    2.3670 nb        1 37F     -0.656000
     37 CAM         5.5310   -4.4880    1.7590 ca        1 37F      0.426200
     38 H1          2.0540    4.2890   -1.0990 ha        1 37F      0.187000
     39 H2          2.4230   -0.4240   -2.6660 h4        1 37F      0.186000
     40 H4          5.6370    1.2290   -0.6800 hn        1 37F      0.343500
     41 H5          4.9550   -1.9340    1.0630 ha        1 37F      0.174000
     42 H6          9.3420    1.8350    0.6630 h1        1 37F      0.044700
     43 H7          7.5940    2.3700    0.6670 h1        1 37F      0.044700
     44 H8          7.8720    3.8150   -1.2100 h1        1 37F      0.038200
     45 H9          9.3140    4.0920   -0.1300 h1        1 37F      0.038200
     46 H11         9.1920    4.6680   -3.2300 h1        1 37F      0.033367
     47 H12        10.4830    5.0350   -1.9950 h1        1 37F      0.033367
     48 H13        10.8680    3.9790   -3.4320 h1        1 37F      0.033367
     49 H14         8.4400    2.2210   -3.3640 h1        1 37F      0.038200
     50 H15        10.1820    1.6880   -3.4200 h1        1 37F      0.038200
     51 H16         9.9590    0.2500   -1.5190 h1        1 37F      0.044700
     52 H17         8.5160   -0.0570   -2.5900 h1        1 37F      0.044700
     53 H18         9.7600   -0.7590    0.3990 ha        1 37F      0.139000
     54 H19         9.1460   -2.7860    1.6680 ha        1 37F      0.138000
     55 H20         8.1950   -3.5060    3.6860 ha        1 37F      0.141000
     56 H21         8.4740   -5.1370    5.5300 ha        1 37F      0.133000
     57 H22         7.7260   -7.2170    6.6980 ha        1 37F      0.134000
     58 H23         5.7880   -8.5060    5.8390 ha        1 37F      0.135000
     59 H24         4.5590   -7.7560    3.8070 ha        1 37F      0.151000
     60 H25         4.9580   -4.1870    0.8600 h4        1 37F      0.035100
     61 H26         1.0170    1.1510   -3.7540 hn        1 37F      0.347500
@<TRIPOS>BOND
     1    1    2 1   
     2    2    3 1   
     3    2    4 1   
     4    2    5 1   
     5    5    6 2   
     6    5   11 1   
     7    6    7 1   
     8    6   38 1   
     9    7    8 2   
    10    7    9 1   
    11    9   10 1   
    12    9   61 1   
    13   10   11 2   
    14   10   39 1   
    15   11   12 1   
    16   12   13 2   
    17   12   14 1   
    18   14   15 1   
    19   14   40 1   
    20   15   16 ar  
    21   15   17 ar  
    22   16   27 ar  
    23   16   41 1   
    24   17   18 1   
    25   17   25 ar  
    26   18   19 1   
    27   18   24 1   
    28   19   20 1   
    29   19   42 1   
    30   19   43 1   
    31   20   21 1   
    32   20   44 1   
    33   20   45 1   
    34   21   22 1   
    35   21   23 1   
    36   22   46 1   
    37   22   47 1   
    38   22   48 1   
    39   23   24 1   
    40   23   49 1   
    41   23   50 1   
    42   24   51 1   
    43   24   52 1   
    44   25   26 ar  
    45   25   53 1   
    46   26   27 ar  
    47   26   54 1   
    48   27   28 1   
    49   28   29 ar  
    50   28   37 ar  
    51   29   30 ar  
    52   29   55 1   
    53   30   31 ar  
    54   30   35 ar  
    55   31   32 ar  
    56   31   56 1   
    57   32   33 ar  
    58   32   57 1   
    59   33   34 ar  
    60   33   58 1   
    61   34   35 ar  
    62   34   59 1   
    63   35   36 ar  
    64   36   37 ar  
    65   37   60 1   
@<TRIPOS>SUBSTRUCTURE
     1 37F         1 TEMP              0 ****  ****    0 ROOT
