@<TRIPOS>MOLECULE
37F
   61    65     1     0     0
SMALL
bcc


@<TRIPOS>ATOM
      1 FAD         3.2800    4.0600    1.0290 f         1 37F     -0.226967
      2 CBK         3.7880    2.9000    0.4970 c3        1 37F      0.678100
      3 FAE         5.1090    3.2010    0.2640 f         1 37F     -0.226967
      4 FAF         3.8060    2.0330    1.5580 f         1 37F     -0.226967
      5 CBE         3.0340    2.3980   -0.7420 cc        1 37F     -0.039200
      6 CAP         2.2070    3.2690   -1.3830 cd        1 37F     -0.206200
      7 CBF         1.4210    2.8630   -2.5500 c         1 37F      0.683700
      8 OAC         0.6650    3.6060   -3.1980 o         1 37F     -0.602500
      9 NAX         1.5460    1.5120   -2.9450 n         1 37F     -0.428100
     10 CAN         2.3760    0.6550   -2.2840 cd        1 37F      0.082600
     11 CBC         3.1570    1.0510   -1.2100 cc        1 37F     -0.255200
     12 CAY         4.0210   -0.0120   -0.6160 c         1 37F      0.691300
     13 OAB         3.5550   -1.1530   -0.4250 o         1 37F     -0.594100
     14 NAW         5.3330    0.3370   -0.3560 n         1 37F     -0.452100
     15 CBB         6.3330   -0.5140    0.1480 ca        1 37F      0.087600
     16 CAO         6.0100   -1.6670    0.8910 ca        1 37F     -0.140000
     17 CBD         7.7140   -0.1890   -0.0580 ca        1 37F      0.051600
     18 NBJ         8.0540    0.9710   -0.8340 nh        1 37F     -0.637000
     19 CAT         8.4760    2.0940   -0.0030 c3        1 37F      0.172300
     20 CAR         8.8380    3.3420   -0.8310 c3        1 37F      0.166800
     21 NBI         9.7670    3.0590   -1.9150 n3        1 37F     -0.733600
     22 CAA        10.0820    4.2350   -2.6940 c3        1 37F      0.157100
     23 CAS         9.3250    1.9450   -2.7420 c3        1 37F      0.166800
     24 CAU         8.9860    0.6880   -1.9170 c3        1 37F      0.172300
     25 CAJ         8.6930   -1.0230    0.5080 ca        1 37F     -0.132000
     26 CAI         8.3530   -2.1590    1.2290 ca        1 37F     -0.135000
     27 CAZ         7.0070   -2.4920    1.4210 cp        1 37F     -0.013000
     28 CBA         6.6430   -3.6860    2.1750 cp        1 37F     -0.156300
     29 CAQ         7.3400   -4.0950    3.2910 ca        1 37F     -0.071000
     30 CBG         6.9400   -5.2730    3.9810 ca        1 37F     -0.148300
     31 CAK         7.6220   -5.7350    5.1360 ca        1 37F     -0.110000
     32 CAG         7.2090   -6.8770    5.7770 ca        1 37F     -0.128000
     33 CAH         6.0970   -7.6050    5.2910 ca        1 37F     -0.123000
     34 CAL         5.4120   -7.1880    4.1770 ca        1 37F     -0.164300
     35 CBH         5.8160   -6.0020    3.4840 ca        1 37F      0.395600
     36 NAV         5.1200   -5.5860    2.3620 nb        1 37F     -0.656000
     37 CAM         5.5210   -4.4870    1.7550 ca        1 37F      0.426200
     38 H1          2.0670    4.3130   -1.0580 ha        1 37F      0.187000
     39 H2          2.4030   -0.3970   -2.6400 h4        1 37F      0.186000
     40 H4          5.6380    1.2350   -0.6700 hn        1 37F      0.343500
     41 H5          4.9520   -1.9290    1.0680 ha        1 37F      0.174000
     42 H6          9.3550    1.8200    0.6490 h1        1 37F      0.044700
     43 H7          7.6100    2.3640    0.6660 h1        1 37F      0.044700
     44 H8          9.3340    4.0780   -0.1380 h1        1 37F      0.038200
     45 H9          7.8830    3.8120   -1.2090 h1        1 37F      0.038200
     46 H11        10.8650    3.9670   -3.4510 h1        1 37F      0.033367
     47 H12         9.1940    4.6640   -3.2360 h1        1 37F      0.033367
     48 H13        10.4950    5.0210   -2.0090 h1        1 37F      0.033367
     49 H14         8.4280    2.2200   -3.3710 h1        1 37F      0.038200
     50 H15        10.1670    1.6790   -3.4400 h1        1 37F      0.038200
     51 H16         9.9500    0.2370   -1.5410 h1        1 37F      0.044700
     52 H17         8.4980   -0.0590   -2.6030 h1        1 37F      0.044700
     53 H18         9.7590   -0.7750    0.3760 ha        1 37F      0.139000
     54 H19         9.1430   -2.8020    1.6440 ha        1 37F      0.138000
     55 H20         8.2020   -3.5220    3.6670 ha        1 37F      0.141000
     56 H21         8.4850   -5.1600    5.5050 ha        1 37F      0.133000
     57 H22         7.7340   -7.2380    6.6730 ha        1 37F      0.134000
     58 H23         5.7860   -8.5170    5.8230 ha        1 37F      0.135000
     59 H24         4.5470   -7.7560    3.8010 ha        1 37F      0.151000
     60 H25         4.9440   -4.1820    0.8600 h4        1 37F      0.035100
     61 H26         0.9980    1.1880   -3.7150 hn        1 37F      0.347500
@<TRIPOS>BOND
     1    1    2 1   
     2    2    3 1   
     3    2    4 1   
     4    2    5 1   
     5    5    6 2   
     6    5   11 1   
     7    6    7 1   
     8    6   38 1   
     9    7    8 2   
    10    7    9 1   
    11    9   10 1   
    12    9   61 1   
    13   10   11 2   
    14   10   39 1   
    15   11   12 1   
    16   12   13 2   
    17   12   14 1   
    18   14   15 1   
    19   14   40 1   
    20   15   16 ar  
    21   15   17 ar  
    22   16   27 ar  
    23   16   41 1   
    24   17   18 1   
    25   17   25 ar  
    26   18   19 1   
    27   18   24 1   
    28   19   20 1   
    29   19   42 1   
    30   19   43 1   
    31   20   21 1   
    32   20   44 1   
    33   20   45 1   
    34   21   22 1   
    35   21   23 1   
    36   22   46 1   
    37   22   47 1   
    38   22   48 1   
    39   23   24 1   
    40   23   49 1   
    41   23   50 1   
    42   24   51 1   
    43   24   52 1   
    44   25   26 ar  
    45   25   53 1   
    46   26   27 ar  
    47   26   54 1   
    48   27   28 1   
    49   28   29 ar  
    50   28   37 ar  
    51   29   30 ar  
    52   29   55 1   
    53   30   31 ar  
    54   30   35 ar  
    55   31   32 ar  
    56   31   56 1   
    57   32   33 ar  
    58   32   57 1   
    59   33   34 ar  
    60   33   58 1   
    61   34   35 ar  
    62   34   59 1   
    63   35   36 ar  
    64   36   37 ar  
    65   37   60 1   
@<TRIPOS>SUBSTRUCTURE
     1 37F         1 TEMP              0 ****  ****    0 ROOT
