@<TRIPOS>MOLECULE
37G
   57    77     1     0     0
SMALL
bcc


@<TRIPOS>ATOM
      1 C13         0.0000    0.0000    0.0000 c2        1 37G     -0.092000
      2 C15         0.0050    0.0020    2.4130 c2        1 37G     -0.050000
      3 C17        -2.1790    0.0020    1.2110 DU        1 37G     -0.255000
      4 C20        -4.9460    0.0040    1.1930 c3        1 37G     -0.340000
      5 C21        -6.3800    0.0040    1.5390 c3        1 37G     -0.157000
      6 C22        -6.4500   -0.0010    2.9020 c2        1 37G      0.012000
      7 C24        -4.2570   -0.0010    2.4190 DU        1 37G      0.272000
      8 C26        -7.5090    0.0090    0.6010 c2        1 37G      0.448000
      9 C01         6.6850    3.3070    3.0410 DU        1 37G     -0.393000
     10 C03         6.3650    3.0500    0.5760 c3        1 37G     -0.101000
     11 C04         6.3900    1.0540    2.0490 c2        1 37G     -0.235000
     12 O05         7.6350    0.5680    1.9390 os        1 37G      0.102000
     13 N06         7.6600   -0.6350    2.0610 n2        1 37G      0.083000
     14 C07         6.4610   -1.1200    2.2670 c2        1 37G     -0.090000
     15 C08         5.5780   -0.0040    2.2700 c3        1 37G     -0.337000
     16 C09         4.0840   -0.0020    2.4710 c3        1 37G      0.065000
     17 C11         2.0750    0.0000    1.2020 c2        1 37G      0.108000
     18 C12         1.3790    0.0000    0.0000 c2        1 37G     -0.081000
     19 C14        -0.6960    0.0010    1.2070 c2        1 37G     -0.122000
     20 C16         1.3840    0.0010    2.4070 c3        1 37G     -0.146000
     21 C18        -2.8770    0.0020   -0.0000 c3        1 37G     -0.043000
     22 C19        -4.2420    0.0030   -0.0100 c2        1 37G      0.076000
     23 N23        -5.2010   -0.0040    3.4260 ny        1 37G     -0.162000
     24 C25        -2.8680   -0.0020    2.4180 c2        1 37G     -0.169000
     25 O27        -7.3040    0.0130   -0.5970 o         1 37G     -0.581000
     26 O28        -8.7740    0.0080    1.0690 o         1 37G     -0.581000
     27 C29         6.0970   -2.5450    2.4630 c2        1 37G     -0.132000
     28 C30         6.3970   -3.4860    1.4780 c2        1 37G      0.062000
     29 Cl31        7.1970   -2.9920    0.0180 cl        1 37G      0.146000
     30 C32         6.0550   -4.8110    1.6660 c2        1 37G     -0.407000
     31 C33         5.4180   -5.2060    2.8280 c3        1 37G      0.288000
     32 C34         5.1180   -4.2780    3.8090 c3        1 37G     -0.110000
     33 C35         5.4600   -2.9510    3.6350 c2        1 37G     -0.121000
     34 Cl36        5.0890   -1.7870    4.8700 cl        1 37G      0.200000
     35 H13         1.0160    0.1020    0.3610 ha        1 37G      0.060000
     36 H15         0.9980    0.4310    2.3560 DU        1 37G      0.104000
     37 H22        -5.5420   -0.0070    2.3110 DU        1 37G      0.296000
     38 H01         5.7010    2.8570    3.0840 DU        1 37G      0.250500
     39 H01A        5.6790    2.9730    3.2630 ha        1 37G      0.151000
     40 H01B        6.6320    3.9040    3.9440 ha        1 37G      0.151000
     41 H02         6.8850    2.8720    2.4110 DU        1 37G      0.250500
     42 H03         6.3950    3.0030    1.6580 DU        1 37G      0.191000
     43 H03A        5.6610    3.1790    1.3890 hc        1 37G      0.055000
     44 H03B        5.6580    2.6200   -0.1230 hc        1 37G      0.055000
     45 H09         4.8200    0.6590    2.0290 DU        1 37G      0.344000
     46 H09A        4.5050    0.8890    2.0200 DU        1 37G      0.014000
     47 H12         2.0580   -0.2820    0.7960 ha        1 37G     -0.041000
     48 H16         2.3710    0.2970    2.7410 hc        1 37G      0.233000
     49 H18        -1.8140    0.0020   -0.2090 hc        1 37G      0.228000
     50 H19        -3.2910    0.0030    0.5080 DU        1 37G      0.053000
     51 HN23       -4.6510   -0.0030    2.5890 hn        1 37G     -0.184000
     52 H25        -3.4020   -0.0140    1.4760 DU        1 37G      0.183000
     53 H32         5.0870   -4.3900    1.9070 DU        1 37G      0.168000
     54 H33         4.5260   -4.5950    2.8890 DU        1 37G      0.166000
     55 H34         5.4930   -4.6840    2.8770 hc        1 37G     -0.221000
     56 O10         3.4320   -0.0020    1.1990 os        1 37G     -0.277000
     57 C02         5.9770    2.5000    1.9510 DU        1 37G     -0.385000
@<TRIPOS>BOND
     1    1   18 1   
     2    1   19 1   
     3    1   35 1   
     4    2   19 1   
     5    2   20 1   
     6    2   36 1   
     7    3   19 1   
     8    3   21 1   
     9    3   24 1   
    10    3   50 1   
    11    3   52 1   
    12    4    5 1   
    13    4    7 1   
    14    4   22 1   
    15    4   37 1   
    16    5    6 1   
    17    5    8 1   
    18    5   37 1   
    19    6   23 1   
    20    6   37 1   
    21    7   23 1   
    22    7   24 1   
    23    7   37 1   
    24    7   52 1   
    25    8   25 1   
    26    8   26 1   
    27    9   38 1   
    28    9   39 1   
    29    9   40 1   
    30    9   41 1   
    31    9   57 1   
    32   10   42 1   
    33   10   43 1   
    34   10   44 1   
    35   10   57 1   
    36   11   12 1   
    37   11   15 1   
    38   11   57 1   
    39   12   13 1   
    40   13   14 1   
    41   14   15 1   
    42   14   27 1   
    43   15   16 1   
    44   15   45 1   
    45   16   45 1   
    46   16   46 1   
    47   16   56 1   
    48   17   18 1   
    49   17   20 1   
    50   17   56 1   
    51   18   47 1   
    52   20   36 1   
    53   20   48 1   
    54   21   22 1   
    55   21   49 1   
    56   21   50 1   
    57   22   50 1   
    58   23   37 1   
    59   23   51 1   
    60   24   52 1   
    61   27   28 1   
    62   27   33 1   
    63   28   29 1   
    64   28   30 1   
    65   30   31 1   
    66   30   53 1   
    67   31   32 1   
    68   31   53 1   
    69   31   54 1   
    70   32   33 1   
    71   32   54 1   
    72   32   55 1   
    73   33   34 1   
    74   38   57 1   
    75   41   57 1   
    76   42   57 1   
    77   45   46 1   
@<TRIPOS>SUBSTRUCTURE
     1 37G         1 TEMP              0 ****  ****    0 ROOT
