@<TRIPOS>MOLECULE
37G
   57    46     1     0     0
SMALL
bcc


@<TRIPOS>ATOM
      1 C13        -1.9790    0.4030    0.5540 c1        1 37G     -0.119250
      2 C15        -1.3100   -0.1620   -1.7110 c1        1 37G     -0.105000
      3 C17        -3.3380    1.0990   -1.3150 c1        1 37G     -0.038750
      4 C20        -5.7070    2.2880   -2.1190 c1        1 37G     -0.038750
      5 C21        -6.9760    2.6060   -2.5440 c1        1 37G     -0.135000
      6 C22        -7.7580    1.4670   -2.4390 c1        1 37G     -0.098000
      7 C24        -5.7000    0.9490   -1.7510 c1        1 37G     -0.038750
      8 C26        -7.8590    3.8320   -3.0550 c1        1 37G      0.379000
      9 C01         3.0990   -4.5780    2.8670 c3        1 37G     -0.208000
     10 C02         3.1080   -3.1440    3.4080 c3        1 37G     -0.052000
     11 C03         3.7010   -3.1450    4.7440 c3        1 37G     -0.208000
     12 C04         3.9470   -2.2340    2.4720 c2        1 37G      0.012000
     13 O05         5.3150   -2.2950    2.3010 os        1 37G     -0.063000
     14 N06         5.6710   -1.3570    1.3370 n2        1 37G      0.000000
     15 C07         4.5210   -0.7200    0.9150 c2        1 37G     -0.072000
     16 C08         3.4510   -1.2580    1.6140 c1        1 37G     -0.163000
     17 C09         1.9640   -0.7130    1.5830 c2        1 37G      0.050000
     18 O10         1.2310   -1.4500    0.6660 os        1 37G     -0.226000
     19 C11         0.0520   -0.7590    0.1460 c2        1 37G      0.048000
     20 C12        -0.8550   -0.1810    1.0250 c1        1 37G     -0.194000
     21 C14        -2.2280    0.4240   -0.8200 c1        1 37G     -0.038750
     22 C16        -0.1980   -0.7390   -1.2390 c2        1 37G     -0.154000
     23 C18        -3.3400    2.4390   -1.6830 c1        1 37G     -0.119250
     24 C19        -4.5090    3.0360   -2.0830 c1        1 37G     -0.119250
     25 N23        -6.9620    0.4450   -1.9480 n1        1 37G     -0.226000
     26 C25        -4.5320    0.3540   -1.3520 c1        1 37G     -0.119250
     27 O27        -7.8240    4.1830   -4.3110 o         1 37G     -0.569000
     28 O28        -8.4920    4.4450   -2.3000 o         1 37G     -0.569000
     29 C29         4.4480    0.2880   -0.0590 c1        1 37G     -0.010000
     30 C30         4.8280    1.6080    0.2670 c1        1 37G     -0.033000
     31 CL31        5.3850    1.9680    1.8160 cl        1 37G      0.006000
     32 C32         4.8220    2.5870   -0.6990 c1        1 37G     -0.132000
     33 C33         4.4360    2.2800   -2.0180 c1        1 37G     -0.116500
     34 C34         4.0600    0.9890   -2.3510 c1        1 37G     -0.116500
     35 C35         4.0650   -0.0210   -1.3620 c1        1 37G     -0.032000
     36 CL36        3.6600   -1.7090   -1.7970 cl        1 37G      0.016000
     37 H13        -2.5530    0.9300    1.1650 ha        1 37G      0.138000
     38 H15        -1.4880   -0.1470   -2.7120 ha        1 37G      0.139000
     39 H22        -8.7190    1.4070   -2.6320 DU        1 37G      0.189500
     40 H01         2.7050   -4.5880    1.9070 hc        1 37G      0.081833
     41 H01A        2.5800   -5.1130    3.4210 hc        1 37G      0.081833
     42 H01B        3.9100   -4.8830    2.8510 hc        1 37G      0.081833
     43 H02         2.0910   -2.7670    3.4600 hc        1 37G      0.137000
     44 H03         3.7300   -2.2320    5.0870 hc        1 37G      0.081833
     45 H03A        3.1640   -3.6940    5.3340 hc        1 37G      0.081833
     46 H03B        4.6880   -3.5380    4.6980 hc        1 37G      0.081833
     47 H09         1.9660    0.2970    1.3030 h4        1 37G      0.094500
     48 H09A        1.5920   -0.7970    2.4060 h4        1 37G      0.094500
     49 H12        -0.6850   -0.1970    1.9600 ha        1 37G      0.129000
     50 H16         0.4380   -1.1420   -1.8530 ha        1 37G      0.137000
     51 H18        -2.5540    2.9900   -1.5040 ha        1 37G      0.138000
     52 H19        -4.5320    4.0110   -2.2410 ha        1 37G      0.138000
     53 HN23       -7.2190   -0.4790   -1.8600 DU        1 37G      0.189500
     54 H25        -4.5250   -0.5830   -1.1160 ha        1 37G      0.138000
     55 H32         5.0940    3.5270   -0.4630 ha        1 37G      0.151000
     56 H33         4.3350    3.0000   -2.6730 ha        1 37G      0.149500
     57 H34         3.7850    0.7730   -3.2940 ha        1 37G      0.149500
@<TRIPOS>BOND
     1    1   21 1   
     2    1   37 1   
     3    2   22 1   
     4    2   38 1   
     5    3   23 1   
     6    4   24 1   
     7    5    6 1   
     8    6   25 1   
     9    7   26 1   
    10    8   27 1   
    11    8   28 1   
    12    9   10 1   
    13    9   40 1   
    14    9   41 1   
    15    9   42 1   
    16   10   11 1   
    17   10   12 1   
    18   10   43 1   
    19   11   44 1   
    20   11   45 1   
    21   11   46 1   
    22   12   13 1   
    23   12   16 1   
    24   13   14 1   
    25   14   15 1   
    26   15   16 1   
    27   15   29 1   
    28   17   18 1   
    29   17   47 1   
    30   17   48 1   
    31   18   19 1   
    32   19   20 1   
    33   19   22 1   
    34   20   49 1   
    35   22   50 1   
    36   23   51 1   
    37   24   52 1   
    38   26   54 1   
    39   29   35 1   
    40   30   31 1   
    41   30   32 1   
    42   32   55 1   
    43   33   34 1   
    44   33   56 1   
    45   34   57 1   
    46   35   36 1   
@<TRIPOS>SUBSTRUCTURE
     1 37G         1 TEMP              0 ****  ****    0 ROOT
