@<TRIPOS>MOLECULE
37G
   57    53     1     0     0
SMALL
bcc


@<TRIPOS>ATOM
      1 C13         1.2990   -4.1060   -0.9920 c1        1 37G     -0.227000
      2 C15         0.3060   -2.3420    0.2390 c1        1 37G     -0.116000
      3 C17        -0.9980   -3.4140   -1.5200 c2        1 37G     -0.085000
      4 C20        -2.7650    1.3470    2.0390 c1        1 37G     -0.150000
      5 C21        -1.8430    1.9180    2.5560 c1        1 37G     -0.077000
      6 C22         1.1600    4.6260    5.9160 c1        1 37G     -0.172000
      7 C24        -2.8720   -1.6190   -1.7270 c2        1 37G     -0.168000
      8 C26        -0.7040    2.5990    3.1780 c2        1 37G      0.423000
      9 C01         2.1280    5.0170    2.7060 c3        1 37G     -0.288000
     10 C03         4.0900    2.8480    4.6240 c2        1 37G     -0.078000
     11 C04         4.3880    0.6830    3.5270 c2        1 37G      0.217000
     12 O05         5.6140    0.4370    4.1270 os        1 37G     -0.059000
     13 N06         6.1280   -0.7370    3.7270 n2        1 37G     -0.026000
     14 C07         5.2820   -1.3230    2.8660 c2        1 37G      0.089000
     15 C08         4.1080   -0.4270    2.6890 c2        1 37G     -0.312000
     16 C09         3.0020   -0.7030    1.8910 c2        1 37G      0.278000
     17 C11         0.8710   -0.0790    1.0000 c3        1 37G     -0.006000
     18 C12         2.2490   -4.8060   -1.2080 c1        1 37G     -0.100000
     19 C14         0.2120   -3.2490   -0.7150 c2        1 37G      0.134000
     20 C16         0.4060   -1.4740    1.2020 c2        1 37G     -0.182000
     21 C18        -4.7080    0.1150    0.9300 c1        1 37G     -0.252000
     22 C19        -3.8000    0.6970    1.4540 c1        1 37G     -0.007000
     23 N23         1.8070    5.0730    6.7710 n1        1 37G     -0.150000
     24 C25        -1.9400   -2.5140   -1.6190 c1        1 37G     -0.144000
     25 O27        -0.9100    3.6330    3.8710 o         1 37G     -0.560000
     26 O28         0.4540    2.1180    2.9810 o         1 37G     -0.560000
     27 C29         5.4020   -2.6180    2.2280 c2        1 37G     -0.253000
     28 C30         5.4040   -2.7540    0.8580 c2        1 37G      0.268000
     29 CL31        5.4900   -1.2850   -0.0820 cl        1 37G     -0.120000
     30 C32         5.3080   -3.8960    0.1190 c1        1 37G     -0.622000
     31 C33         5.1500   -4.9090   -0.5800 c1        1 37G     -0.082000
     32 C34         6.1440   -4.9110    2.8250 c2        1 37G     -0.214000
     33 C35         5.5020   -3.7720    3.1040 c2        1 37G      0.009000
     34 CL36        4.6950   -3.6180    4.6250 cl        1 37G     -0.090000
     35 H13         0.1470    0.6840    1.4340 h1        1 37G      0.162500
     36 H15         0.0990   -1.7250    2.2350 ha        1 37G      0.164000
     37 H22         0.5450    4.2100    5.1180 ha        1 37G      0.308000
     38 H01         2.6430    1.9350    3.3310 ha        1 37G      0.233000
     39 H01A        1.8950    5.7050    1.8660 hc        1 37G      0.071250
     40 H01B        3.0500    4.4410    2.4700 hc        1 37G      0.071250
     41 H02         2.2840    5.6050    3.6370 hc        1 37G      0.071250
     42 H03         1.2780    4.3060    2.8570 hc        1 37G      0.071250
     43 H03A        3.4690    3.7400    4.8140 ha        1 37G      0.139500
     44 H03B        5.0670    2.8190    5.1270 ha        1 37G      0.139500
     45 H09         1.8590    2.6690    1.2750 ha        1 37G      0.001000
     46 H09A        2.1000    2.3800    0.7090 ha        1 37G      0.001000
     47 H12         1.1280    0.1580   -0.0640 h1        1 37G      0.162500
     48 H16         2.9150   -1.6750    1.3550 h4        1 37G      0.205000
     49 H18        -5.5150   -0.3960    0.4750 ha        1 37G      0.217000
     50 H19        -1.0750   -4.3740   -2.0630 ha        1 37G      0.153000
     51 HN23       -2.8590   -0.8500   -2.5130 ha        1 37G      0.136500
     52 H25        -3.7200   -1.5620   -1.0260 ha        1 37G      0.136500
     53 H32         3.1360   -5.3890   -1.3670 ha        1 37G      0.275000
     54 H33         6.1700   -5.7630    3.5140 ha        1 37G      0.135500
     55 H34         6.6550   -5.0490    1.8610 ha        1 37G      0.135500
     56 O10         2.0620    0.2180    1.7900 os        1 37G     -0.101000
     57 C02         3.6490    1.8700    3.8180 c2        1 37G     -0.206000
@<TRIPOS>BOND
     1    1   18 1   
     2    1   19 1   
     3    2   19 1   
     4    2   20 1   
     5    3   19 1   
     6    3   24 1   
     7    3   50 1   
     8    4    5 1   
     9    4   22 1   
    10    5    8 1   
    11    6   23 1   
    12    6   37 1   
    13    7   24 1   
    14    7   51 1   
    15    7   52 1   
    16    8   25 1   
    17    8   26 1   
    18    9   39 1   
    19    9   40 1   
    20    9   41 1   
    21    9   42 1   
    22   10   43 1   
    23   10   44 1   
    24   10   57 1   
    25   11   12 1   
    26   11   15 1   
    27   11   57 1   
    28   12   13 1   
    29   13   14 1   
    30   14   15 1   
    31   14   27 1   
    32   15   16 1   
    33   16   48 1   
    34   16   56 1   
    35   17   20 1   
    36   17   35 1   
    37   17   47 1   
    38   17   56 1   
    39   18   53 1   
    40   20   36 1   
    41   21   22 1   
    42   21   49 1   
    43   27   28 1   
    44   27   33 1   
    45   28   29 1   
    46   28   30 1   
    47   30   31 1   
    48   32   33 1   
    49   32   54 1   
    50   32   55 1   
    51   33   34 1   
    52   38   57 1   
    53   45   46 1   
@<TRIPOS>SUBSTRUCTURE
     1 37G         1 TEMP              0 ****  ****    0 ROOT
