@<TRIPOS>MOLECULE
37G
   57    61     1     0     0
SMALL
bcc


@<TRIPOS>ATOM
      1 C13         2.0230   -1.7220   -0.8080 ca        1 37G     -0.102500
      2 C15         1.7790    0.0780    0.7860 ca        1 37G     -0.102500
      3 C17         4.0410   -0.4410   -0.1120 cp        1 37G     -0.063000
      4 C20         6.7900    0.0540   -0.3240 ca        1 37G     -0.049800
      5 C21         8.1870    0.3670   -0.0810 cc        1 37G     -0.141400
      6 C22         8.3090    0.5920    1.2820 cd        1 37G     -0.126100
      7 C24         6.1150    0.1150    0.9560 ca        1 37G     -0.081200
      8 C26         9.2830    0.4420   -1.1070 c         1 37G      0.928800
      9 C01        -4.5240   -4.3030    1.2200 c3        1 37G     -0.090600
     10 C03        -4.1090   -4.2070   -1.2400 c3        1 37G     -0.090600
     11 C04        -4.3400   -2.1310    0.0690 cc        1 37G      0.302000
     12 O05        -5.7150   -1.9170   -0.2100 os        1 37G     -0.119100
     13 N06        -5.9890   -0.6300   -0.2020 nc        1 37G     -0.335300
     14 C07        -4.8600    0.0600    0.0670 cd        1 37G      0.362800
     15 C08        -3.7560   -0.8910    0.2550 cd        1 37G     -0.301900
     16 C09        -2.3730   -0.5130    0.5950 c3        1 37G      0.207700
     17 C11        -0.1500   -1.1820    0.0860 ca        1 37G      0.094100
     18 C12         0.6570   -1.9680   -0.7540 ca        1 37G     -0.174000
     19 C14         2.6030   -0.6960   -0.0430 cp        1 37G     -0.019000
     20 C16         0.4080   -0.1580    0.8580 ca        1 37G     -0.174000
     21 C18         4.7030   -0.5100   -1.3550 ca        1 37G     -0.168000
     22 C19         6.0660   -0.2670   -1.4680 ca        1 37G     -0.064000
     23 N23         7.0790    0.3690    1.9480 na        1 37G     -0.203400
     24 C25         4.7430   -0.1290    1.0570 ca        1 37G     -0.145000
     25 O27         8.9920    0.1920   -2.3110 o         1 37G     -0.834800
     26 O28        10.4400    0.7580   -0.7070 o         1 37G     -0.834800
     27 C29        -4.7550    1.5110    0.1580 ca        1 37G     -0.116500
     28 C30        -4.3580    2.2710   -0.9550 ca        1 37G      0.045900
     29 CL31       -4.0190    1.5180   -2.4370 cl        1 37G     -0.066900
     30 C32        -4.2350    3.6620   -0.8600 ca        1 37G     -0.131000
     31 C33        -4.5160    4.3020    0.3440 ca        1 37G     -0.105000
     32 C34        -4.9220    3.5660    1.4560 ca        1 37G     -0.131000
     33 C35        -5.0430    2.1760    1.3610 ca        1 37G      0.045900
     34 CL36       -5.5440    1.3040    2.7300 cl        1 37G     -0.066900
     35 H13         2.6640   -2.3390   -1.4570 ha        1 37G      0.140500
     36 H15         2.2220    0.8880    1.3850 ha        1 37G      0.140500
     37 H22         9.2080    0.8510    1.8450 h4        1 37G      0.170000
     38 H01        -4.1410   -5.3510    1.2300 hc        1 37G      0.042867
     39 H01A       -4.2990   -3.8290    2.2050 hc        1 37G      0.042867
     40 H01B       -5.6320   -4.3240    1.0780 hc        1 37G      0.042867
     41 H02        -2.7470   -3.4880    0.2810 hc        1 37G      0.097700
     42 H03        -3.5790   -3.6610   -2.0570 hc        1 37G      0.042867
     43 H03A       -3.7300   -5.2560   -1.2050 hc        1 37G      0.042867
     44 H03B       -5.2010   -4.2250   -1.4720 hc        1 37G      0.042867
     45 H09        -2.1120    0.4740    0.1240 h1        1 37G      0.054700
     46 H09A       -2.2570   -0.4380    1.7130 h1        1 37G      0.054700
     47 H12         0.2000   -2.7690   -1.3500 ha        1 37G      0.132500
     48 H16        -0.2170    0.4600    1.5160 ha        1 37G      0.132500
     49 H18         4.1200   -0.7510   -2.2560 ha        1 37G      0.115000
     50 H19         6.6040   -0.3150   -2.4320 ha        1 37G      0.181000
     51 HN23        6.8450    0.8360    2.7860 hn        1 37G      0.258700
     52 H25         4.2300   -0.0920    2.0260 ha        1 37G      0.115000
     53 H32        -3.9150    4.2470   -1.7360 ha        1 37G      0.152500
     54 H33        -4.4160    5.3950    0.4190 ha        1 37G      0.143000
     55 H34        -5.1460    4.0770    2.4050 ha        1 37G      0.152500
     56 O10        -1.4920   -1.5370    0.1140 os        1 37G     -0.341900
     57 C02        -3.8620   -3.5290    0.0950 c3        1 37G     -0.107000
@<TRIPOS>BOND
     1    1   18 ar  
     2    1   19 ar  
     3    1   35 1   
     4    2   19 ar  
     5    2   20 ar  
     6    2   36 1   
     7    3   19 1   
     8    3   21 ar  
     9    3   24 ar  
    10    4    5 1   
    11    4    7 ar  
    12    4   22 ar  
    13    5    6 2   
    14    5    8 1   
    15    6   23 1   
    16    6   37 1   
    17    7   23 1   
    18    7   24 ar  
    19    8   25 1   
    20    8   26 1   
    21    9   38 1   
    22    9   39 1   
    23    9   40 1   
    24    9   57 1   
    25   10   42 1   
    26   10   43 1   
    27   10   44 1   
    28   10   57 1   
    29   11   12 1   
    30   11   15 2   
    31   11   57 1   
    32   12   13 1   
    33   13   14 2   
    34   14   15 1   
    35   14   27 1   
    36   15   16 1   
    37   16   45 1   
    38   16   46 1   
    39   16   56 1   
    40   17   18 ar  
    41   17   20 ar  
    42   17   56 1   
    43   18   47 1   
    44   20   48 1   
    45   21   22 ar  
    46   21   49 1   
    47   22   50 1   
    48   23   51 1   
    49   24   52 1   
    50   27   28 ar  
    51   27   33 ar  
    52   28   29 1   
    53   28   30 ar  
    54   30   31 ar  
    55   30   53 1   
    56   31   32 ar  
    57   31   54 1   
    58   32   33 ar  
    59   32   55 1   
    60   33   34 1   
    61   41   57 1   
@<TRIPOS>SUBSTRUCTURE
     1 37G         1 TEMP              0 ****  ****    0 ROOT
