@<TRIPOS>MOLECULE
37H
   60    80     1     0     0
SMALL
bcc


@<TRIPOS>ATOM
      1 C4          0.0000    0.0000    0.0000 c2        1 37H     -0.348000
      2 C5          1.4050    0.0000    0.0000 c2        1 37H     -0.291000
      3 C6          2.0680    0.0000    1.2390 c2        1 37H      0.641000
      4 C8          0.7600   -0.0090   -2.0700 c2        1 37H     -0.156000
      5 N1          1.3360    0.0000    2.3490 n2        1 37H      0.016000
      6 N3         -0.6460    0.0000    1.1610 na        1 37H      0.595000
      7 C           0.1600   -0.7450   -9.4790 c2        1 37H      0.310000
      8 O           1.1280   -1.4540   -9.6190 o         1 37H     -0.399000
      9 CA         -1.1680   -1.3470   -9.0980 DU        1 37H      0.155000
     10 N          -1.1640   -2.7810   -9.4180 nz        1 37H     -0.126000
     11 CAL        -2.8010   -1.6590   -7.2340 DU        1 37H     -0.340000
     12 CAZ        -2.9880   -1.5910   -5.7160 DU        1 37H     -0.135000
     13 CAM        -4.3300   -2.2210   -5.3390 DU        1 37H     -0.441000
     14 NAR        -4.3100   -3.6480   -5.6700 ny        1 37H     -0.343000
     15 CAT        -5.3750   -4.4480   -5.3270 c3        1 37H      0.222000
     16 NAB        -5.3560   -5.7870   -5.6370 n2        1 37H     -0.108000
     17 NAA        -6.4020   -3.9350   -4.7090 nz        1 37H      0.078000
     18 CBC        -3.0260   -0.0670   -3.7370 DU        1 37H     -0.306000
     19 OAS        -1.7920   -0.5550   -3.1640 os        1 37H     -0.202000
     20 CBA        -3.1290    1.3990   -3.2620 DU        1 37H     -0.196000
     21 OAG        -4.4870    1.7350   -2.9690 oh        1 37H     -0.196000
     22 CBB        -2.2720    1.4390   -1.9770 DU        1 37H      0.205000
     23 OAH        -3.0730    1.8020   -0.8510 oh        1 37H     -0.236000
     24 CBD        -1.7510   -0.0070   -1.8280 c3        1 37H     -0.089000
     25 N9         -0.3770   -0.0050   -1.3190 na        1 37H      0.360000
     26 N7          1.8050   -0.0000   -1.2940 n2        1 37H      0.208000
     27 C2          0.0170    0.0010    2.2980 c2        1 37H      0.124000
     28 N6          3.4500   -0.0010    1.3030 nv        1 37H      0.410000
     29 H1         -0.0760   -0.0140   -2.7590 h5        1 37H      0.220000
     30 H3         -1.4270   -1.1570   -8.0640 DU        1 37H     -0.470000
     31 H4         -0.7780   -1.8710   -9.5770 DU        1 37H      0.281000
     32 H5         -0.8890   -2.3920   -8.5380 DU        1 37H      0.331000
     33 H7         -1.6620   -1.0190   -8.6410 DU        1 37H     -0.008000
     34 H8         -0.9640   -1.8850   -8.2740 DU        1 37H     -0.250000
     35 H9         -2.4720   -2.0700   -8.1800 ha        1 37H      0.173000
     36 H10        -2.1840   -0.7710   -7.3010 DU        1 37H      0.156000
     37 H11        -2.0290   -1.5430   -6.2180 DU        1 37H      0.317000
     38 H12        -4.0430   -1.7830   -6.2880 DU        1 37H     -0.015500
     39 H13        -3.7240   -2.4100   -6.2180 DU        1 37H     -0.015500
     40 H14        -3.5000   -3.0830   -5.5080 DU        1 37H      0.350000
     41 H15        -5.1430   -4.8700   -5.2980 hn        1 37H     -0.062000
     42 H16        -5.9490   -3.1490   -5.1320 hn        1 37H      0.286000
     43 H17        -5.4190   -4.0310   -4.8690 DU        1 37H      0.018000
     44 H18        -3.2390   -1.1670   -5.4100 DU        1 37H      0.039000
     45 H19        -3.6610   -0.8960   -4.9450 DU        1 37H     -0.030000
     46 H20        -3.7980   -0.7840   -3.9870 ha        1 37H      0.268000
     47 H21        -2.6490    0.9980   -4.1470 DU        1 37H      0.330000
     48 H22        -4.2510    1.3530   -3.7980 DU        1 37H      0.264000
     49 H23        -2.8530    0.6830   -2.4920 DU        1 37H      0.441000
     50 H24        -2.9680    1.8810   -1.7850 DU        1 37H      0.244000
     51 H25        -2.5100    0.6600   -2.2200 DU        1 37H     -0.216000
     52 H26        -0.2930    0.4530    1.3630 DU        1 37H     -0.018000
     53 H27         2.4890    0.1420    1.0610 hn        1 37H     -0.215500
     54 H28         2.5320   -0.0920    0.9150 hn        1 37H     -0.215500
     55 HN3        -0.6630   -2.5320   -8.5880 hn        1 37H      0.227000
     56 HAR2       -3.9500   -3.0860   -6.4160 hn        1 37H      0.222000
     57 HAA3       -5.9860   -3.1790   -5.2150 hn        1 37H      0.286000
     58 CAN        -2.9640   -0.1300   -5.2640 c2        1 37H     -0.230000
     59 CB         -1.4020   -1.1590   -7.5980 c3        1 37H      0.279000
     60 OXT         0.2680    0.5810   -9.6620 o         1 37H     -0.399000
@<TRIPOS>BOND
     1    1    2 1   
     2    1    6 1   
     3    1   25 1   
     4    2    3 1   
     5    2   26 1   
     6    3    5 1   
     7    3   28 1   
     8    4   25 1   
     9    4   26 1   
    10    4   29 1   
    11    5   27 1   
    12    6   27 1   
    13    6   52 1   
    14    7    8 1   
    15    7    9 1   
    16    7   60 1   
    17    9   10 1   
    18    9   30 1   
    19    9   31 1   
    20    9   32 1   
    21    9   33 1   
    22   10   31 1   
    23   10   32 1   
    24   10   55 1   
    25   11   12 1   
    26   11   35 1   
    27   11   36 1   
    28   11   37 1   
    29   11   59 1   
    30   12   13 1   
    31   12   37 1   
    32   12   38 1   
    33   12   39 1   
    34   12   44 1   
    35   13   14 1   
    36   13   38 1   
    37   13   39 1   
    38   13   40 1   
    39   14   15 1   
    40   14   40 1   
    41   14   56 1   
    42   15   16 1   
    43   15   17 1   
    44   15   43 1   
    45   16   41 1   
    46   17   42 1   
    47   17   43 1   
    48   17   57 1   
    49   18   19 1   
    50   18   20 1   
    51   18   46 1   
    52   18   47 1   
    53   18   58 1   
    54   19   24 1   
    55   20   21 1   
    56   20   22 1   
    57   20   47 1   
    58   20   48 1   
    59   20   49 1   
    60   21   48 1   
    61   22   23 1   
    62   22   24 1   
    63   22   49 1   
    64   22   50 1   
    65   22   51 1   
    66   23   50 1   
    67   24   25 1   
    68   24   51 1   
    69   27   52 1   
    70   28   53 1   
    71   28   54 1   
    72   30   33 1   
    73   32   34 1   
    74   33   59 1   
    75   34   59 1   
    76   36   59 1   
    77   44   45 1   
    78   44   58 1   
    79   45   58 1   
    80   49   51 1   
@<TRIPOS>SUBSTRUCTURE
     1 37H         1 TEMP              0 ****  ****    0 ROOT
