@<TRIPOS>MOLECULE
37H
   61    57     1     0     0
SMALL
bcc


@<TRIPOS>ATOM
      1 C4        456.5080  523.7840  740.0160 c2        1 37H      0.095000
      2 C5        457.5410  524.5530  739.3110 c2        1 37H     -0.213000
      3 C6        458.7540  523.8780  739.0370 c2        1 37H      0.076000
      4 C8        455.8370  525.8840  739.5610 c2        1 37H      0.027000
      5 N1        458.9620  522.6040  739.3960 n2        1 37H     -0.204000
      6 N3        456.7600  522.4810  740.3670 nh        1 37H     -0.152000
      7 C        1236.5420  421.6550-1890.3760 c1        1 37H      0.463000
      8 O        1236.5620  422.1770-1891.4570 o         1 37H     -0.229500
      9 CA       1237.5560  424.4250-1894.5340 c1        1 37H      0.193000
     10 N        1236.7170  423.4490-1893.9110 n4        1 37H     -0.143000
     11 CAL        12.5330 -246.3410 -664.8040 c3        1 37H     -0.212000
     12 CAZ     -1289.9760 -861.7910  156.0000 cu        1 37H     -0.331000
     13 CAM     -1290.0840 -862.5060  157.2500 c3        1 37H     -0.013000
     14 NAR     -1289.3290 -861.8270  158.3510 n4        1 37H     -0.056000
     15 CAT     -1287.3200 -860.0160  161.3590 c1        1 37H      0.045000
     16 NAB     -1287.9180 -860.6170  160.5500 n1        1 37H     -0.244000
     17 NAA     -1286.6220 -859.2380  162.2060 n3        1 37H     -0.282000
     18 CBC     -1290.5500 -861.2500  154.9380 cu        1 37H     -0.024000
     19 OAS       453.3370  525.2870  740.8230 o         1 37H     -0.260000
     20 CBA       452.2770  521.6490  742.5470 c3        1 37H     -0.126000
     21 OAG       452.2180  520.3190  743.0370 oh        1 37H     -0.362000
     22 CBB       453.6030  521.8590  741.9140 c1        1 37H     -0.011000
     23 OAH       454.4900  520.9230  741.8680 oh        1 37H     -0.165000
     24 CBD       454.1650  524.3840  740.7910 c2        1 37H      0.187000
     25 N9        455.4250  524.6560  740.1650 n         1 37H     -0.231000
     26 N7        457.0740  525.8530  739.0510 n2        1 37H     -0.138000
     27 C2        457.9810  521.9130  740.0520 c1        1 37H      0.073000
     28 N6        459.8080  524.6380  738.3270 n4        1 37H     -0.026000
     29 H1        455.1530  526.7510  739.5450 h5        1 37H      0.249000
     30 H3         13.6250 -247.9510 -665.7520 hc        1 37H      0.071000
     31 H4       1237.3290  422.6680-1893.5910 hn        1 37H      0.283000
     32 H5       1235.9300  423.0520-1894.4380 hn        1 37H      0.283000
     33 H7       1237.2680  424.6780-1895.5820 hx        1 37H      0.097000
     34 H8         14.6610 -246.6390 -665.0590 hc        1 37H      0.071000
     35 H9         12.4880 -246.8350 -663.8030 hc        1 37H      0.071000
     36 H10        11.5740 -246.5500 -665.3390 hc        1 37H      0.071000
     37 H11        13.7480 -246.3540 -666.5950 hc        1 37H      0.071000
     38 H12        12.6110 -245.2380 -664.6450 hc        1 37H      0.071000
     39 H13     -1289.6540 -863.5490  157.1420 hx        1 37H      0.153000
     40 H14     -1289.7040 -860.8870  158.5190 hn        1 37H      0.260333
     41 H15     -1289.4000 -862.3690  159.2190 hn        1 37H      0.260333
     42 H16     -1287.1430 -858.8620  162.9710 hn        1 37H      0.242000
     43 H17     -1285.7030 -859.5630  162.4260 hn        1 37H      0.242000
     44 H18     -1288.4790 -860.3640  155.0920 hc        1 37H      0.120000
     45 H19     -1288.5280 -862.0010  154.2680 hc        1 37H      0.120000
     46 H20     -1291.4270 -860.9760  154.3800 ha        1 37H      0.218000
     47 H21       452.1510  522.3930  743.3840 h1        1 37H      0.138000
     48 H22       451.3530  520.1910  743.4470 ho        1 37H      0.247000
     49 H23       451.4740  521.8310  741.7780 h1        1 37H      0.138000
     50 H24       454.2430  520.0600  742.2740 ho        1 37H      0.253000
     51 H25       454.0270  523.2990  741.2300 h5        1 37H      0.287000
     52 H26       456.0750  521.9260  740.8500 hn        1 37H      0.298000
     53 H27       460.6440  524.0570  738.1770 hn        1 37H      0.273333
     54 H28       459.4340  524.9490  737.4220 hn        1 37H      0.273333
     55 HN3      1236.3490  423.8690-1893.0300 hn        1 37H      0.283000
     56 HAR2    -1288.3390 -861.7310  158.1020 hn        1 37H      0.260333
     57 HAA3    -1291.1640 -862.5900  157.5760 hx        1 37H      0.153000
     58 H63       460.0540  525.4620  738.8890 hn        1 37H      0.273333
     59 CAN     -1289.0610 -861.2920  154.9310 cx        1 37H     -0.124000
     60 CB         13.7030 -246.8480 -665.5940 c3        1 37H     -0.212000
     61 OXT      1236.5200  421.1420-1889.3150 o         1 37H     -0.229500
@<TRIPOS>BOND
     1    1    2 1   
     2    1    6 1   
     3    1   25 1   
     4    2    3 1   
     5    2   26 1   
     6    3    5 1   
     7    3   28 1   
     8    4   25 1   
     9    4   26 1   
    10    4   29 1   
    11    5   27 1   
    12    6   27 1   
    13    6   52 1   
    14    7    8 1   
    15    7   61 1   
    16    9   10 1   
    17    9   33 1   
    18   10   31 1   
    19   10   32 1   
    20   10   55 1   
    21   11   35 1   
    22   11   36 1   
    23   11   38 1   
    24   11   60 1   
    25   12   13 1   
    26   12   18 1   
    27   12   59 1   
    28   13   14 1   
    29   13   39 1   
    30   13   57 1   
    31   14   40 1   
    32   14   41 1   
    33   14   56 1   
    34   15   16 1   
    35   15   17 1   
    36   17   42 1   
    37   17   43 1   
    38   18   46 1   
    39   18   59 1   
    40   19   24 1   
    41   20   21 1   
    42   20   22 1   
    43   20   47 1   
    44   20   49 1   
    45   21   48 1   
    46   22   23 1   
    47   23   50 1   
    48   24   25 1   
    49   24   51 1   
    50   28   53 1   
    51   28   54 1   
    52   28   58 1   
    53   30   60 1   
    54   34   60 1   
    55   37   60 1   
    56   44   59 1   
    57   45   59 1   
@<TRIPOS>SUBSTRUCTURE
     1 37H         1 TEMP              0 ****  ****    0 ROOT
