@<TRIPOS>MOLECULE
37J
   46    48     1     0     0
SMALL
bcc


@<TRIPOS>ATOM
      1 N1         -0.1100    0.5700    0.0120 n2        1 37J     -0.170000
      2 C2          1.2450    0.6750    0.2920 c2        1 37J     -0.080000
      3 O2         -3.0220   -1.7830    0.7220 o         1 37J     -0.301000
      4 N3          3.7830    0.9310   -3.4330 n2        1 37J     -0.177000
      5 C4          2.1520    0.9520   -0.8920 c2        1 37J      0.378000
      6 N4          1.8160    0.2180   -4.5970 n2        1 37J     -0.133000
      7 C5         -3.1290   -0.7340    1.3750 c2        1 37J      0.352000
      8 C6         -4.2590   -0.5110    2.3170 c2        1 37J     -0.092000
      9 F6          6.1040   -2.4900   -7.5160 f         1 37J     -0.161333
     10 F4          7.4140   -1.3120   -6.2600 f         1 37J     -0.161333
     11 F5          6.9270   -0.6150   -8.2500 f         1 37J     -0.161333
     12 C14         5.1530   -0.4460   -6.5850 c2        1 37J     -0.275000
     13 C15         5.2130    0.1380   -5.3620 c2        1 37J      0.059000
     14 C16         4.0530    0.9340   -4.8770 c3        1 37J     -0.105000
     15 C19         2.4990    0.5670   -3.3110 c2        1 37J      0.117000
     16 C17         2.7280    0.4070   -5.5110 c2        1 37J     -0.063000
     17 C18         2.7390    0.0910   -6.9610 c3        1 37J     -0.171000
     18 C13         4.0240   -0.3850   -7.4590 c1        1 37J      0.003000
     19 N5          1.7560    0.4530   -2.1330 ns        1 37J     -0.287000
     20 O1          3.2100    1.5710   -0.7120 o         1 37J     -0.296000
     21 C3         -1.1120    0.3600    0.7120 c1        1 37J      0.208000
     22 S           1.3610    0.3320    3.0470 sh        1 37J      0.312000
     23 C1          1.8610    0.5930    1.5060 c2        1 37J     -0.315000
     24 N2         -2.2510    0.3650    1.2500 n2        1 37J     -0.261000
     25 C11        -5.6100   -0.6480    1.7180 c3        1 37J     -0.145000
     26 C10        -6.7300   -0.4770    2.6650 c2        1 37J     -0.044000
     27 C9         -6.5350   -0.1920    3.9780 c2        1 37J     -0.208000
     28 C8         -5.2400   -0.0310    4.5350 c1        1 37J     -0.066000
     29 C7         -4.1250   -0.2430    3.6470 c2        1 37J      0.053000
     30 O3         -2.8350   -0.1770    4.1570 os        1 37J     -0.261000
     31 C12        -2.6620    0.1230    5.5240 c3        1 37J      0.563000
     32 F1         -1.3080    0.1070    5.6670 f         1 37J     -0.135667
     33 F2         -3.1120    1.3550    5.8490 f         1 37J     -0.135667
     34 F3         -3.1890   -0.8220    6.3330 f         1 37J     -0.135667
     35 H1          4.2210    2.0110   -5.1900 h1        1 37J      0.172000
     36 H3          6.1130    0.1050   -4.7200 ha        1 37J      0.179000
     37 H4          1.9640   -0.6920   -7.2190 hc        1 37J      0.173000
     38 H5          2.4610    1.0100   -7.5590 hc        1 37J      0.173000
     39 H6          0.8440    0.0590   -2.2330 hn        1 37J      0.272000
     40 H7          2.9690    0.7400    1.4860 h4        1 37J      0.208000
     41 H8          0.0490    0.2350    2.9260 hs        1 37J      0.009000
     42 H9         -5.7190    0.1070    0.8840 hc        1 37J      0.160500
     43 H10        -5.6790   -1.6710    1.2370 hc        1 37J      0.160500
     44 H11        -7.7400   -0.5850    2.2340 ha        1 37J      0.144000
     45 H12        -7.3900   -0.0650    4.6650 ha        1 37J      0.164000
     46 C20         6.3640   -1.1970   -7.1430 c3        1 37J      0.485000
@<TRIPOS>BOND
     1    1    2 1   
     2    1   21 1   
     3    2    5 1   
     4    2   23 1   
     5    3    7 1   
     6    4   14 1   
     7    4   15 1   
     8    5   19 1   
     9    5   20 1   
    10    6   15 1   
    11    6   16 1   
    12    7    8 1   
    13    7   24 1   
    14    8   25 1   
    15    8   29 1   
    16    9   46 1   
    17   10   46 1   
    18   11   46 1   
    19   12   13 1   
    20   12   18 1   
    21   12   46 1   
    22   13   14 1   
    23   13   36 1   
    24   14   16 1   
    25   14   35 1   
    26   15   19 1   
    27   16   17 1   
    28   17   18 1   
    29   17   37 1   
    30   17   38 1   
    31   19   39 1   
    32   21   24 1   
    33   22   23 1   
    34   22   41 1   
    35   23   40 1   
    36   25   26 1   
    37   25   42 1   
    38   25   43 1   
    39   26   27 1   
    40   26   44 1   
    41   27   28 1   
    42   27   45 1   
    43   28   29 1   
    44   29   30 1   
    45   30   31 1   
    46   31   32 1   
    47   31   33 1   
    48   31   34 1   
@<TRIPOS>SUBSTRUCTURE
     1 37J         1 TEMP              0 ****  ****    0 ROOT
