@<TRIPOS>MOLECULE
37J
   46    48     1     0     0
SMALL
bcc


@<TRIPOS>ATOM
      1 N1         -0.5600   -0.7570   -0.1280 n2        1 37J     -0.144000
      2 C2         -0.5040    0.3280   -0.8210 c2        1 37J      0.024000
      3 O2         -4.6260   -2.1540    1.0760 o         1 37J     -0.277000
      4 N3          3.0400    0.6520   -3.5880 na        1 37J     -0.173000
      5 C4          0.7320    0.5640   -1.6900 c2        1 37J      0.350000
      6 N4          2.4950   -1.4960   -4.2810 n2        1 37J     -0.165000
      7 C5         -3.9080   -1.2070    1.4260 c2        1 37J      0.328000
      8 C6         -4.2370   -0.3990    2.6350 c2        1 37J     -0.115000
      9 F6          8.1970    0.3620   -6.5480 f         1 37J     -0.169000
     10 F4          7.2380    2.2750   -6.2500 f         1 37J     -0.169000
     11 F5          6.9010    1.1860   -8.0850 f         1 37J     -0.169000
     12 C14         5.8010    0.3080   -6.0930 c2        1 37J     -0.272000
     13 C15         5.0660    0.9600   -5.1250 c2        1 37J      0.092000
     14 C16         3.9650    0.2690   -4.5690 c2        1 37J     -0.179000
     15 C19         2.1640   -0.4340   -3.4360 c2        1 37J      0.135000
     16 C17         3.6000   -1.0630   -4.9760 c2        1 37J     -0.014000
     17 C18         4.3960   -1.7530   -6.0130 c3        1 37J     -0.148000
     18 C13         5.5170   -0.9960   -6.5520 c1        1 37J     -0.076000
     19 N5          1.0710   -0.4630   -2.5550 n         1 37J     -0.284000
     20 O1          1.3460    1.6410   -1.6300 o         1 37J     -0.329000
     21 C3         -1.6080   -1.1220    0.7470 c2        1 37J      0.091000
     22 S          -1.7250    2.5090    0.1360 s         1 37J      0.189000
     23 C1         -1.4610    1.4560   -0.9130 c2        1 37J     -0.261000
     24 N2         -2.8390   -0.7560    0.6260 n2        1 37J     -0.275000
     25 C11        -5.6070    0.1660    2.6840 c3        1 37J     -0.144000
     26 C10        -5.9290    0.9090    3.9180 c2        1 37J     -0.042000
     27 C9         -5.0350    1.0670    4.9280 c2        1 37J     -0.209000
     28 C8         -3.7210    0.5330    4.8700 c1        1 37J     -0.063000
     29 C7         -3.3860   -0.2130    3.6840 c2        1 37J      0.041000
     30 O3         -2.1270   -0.7900    3.5760 os        1 37J     -0.284000
     31 C12        -1.2290   -0.6890    4.6610 c3        1 37J      0.565000
     32 F1         -0.1510   -1.3920    4.2180 f         1 37J     -0.132667
     33 F2         -0.8480    0.5850    4.8980 f         1 37J     -0.132667
     34 F3         -1.7020   -1.2790    5.7800 f         1 37J     -0.132667
     35 H1          3.0090    1.5110   -3.0910 hn        1 37J      0.292000
     36 H3          5.3140    1.9810   -4.7850 ha        1 37J      0.156000
     37 H4          4.8110   -2.7250   -5.6040 hc        1 37J      0.177500
     38 H5          3.7350   -2.0450   -6.8840 hc        1 37J      0.177500
     39 H6          0.5930   -1.3400   -2.4960 hn        1 37J      0.285000
     40 H7         -1.9630    1.4180   -1.9060 h4        1 37J      0.148000
     41 H8         -1.2120   -1.8040    1.5430 h5        1 37J      0.184000
     42 H9         -5.7560    0.8480    1.7950 hc        1 37J      0.163000
     43 H10        -6.3410   -0.6870    2.5560 hc        1 37J      0.163000
     44 H11        -6.9460    1.3350    3.9670 ha        1 37J      0.145000
     45 H12        -5.3010    1.6290    5.8400 ha        1 37J      0.165000
     46 C20         6.9980    1.0040   -6.7290 c3        1 37J      0.487000
@<TRIPOS>BOND
     1    1    2 1   
     2    1   21 1   
     3    2    5 1   
     4    2   23 1   
     5    3    7 1   
     6    4   14 1   
     7    4   15 1   
     8    4   35 1   
     9    5   19 1   
    10    5   20 1   
    11    6   15 1   
    12    6   16 1   
    13    7    8 1   
    14    7   24 1   
    15    8   25 1   
    16    8   29 1   
    17    9   46 1   
    18   10   46 1   
    19   11   46 1   
    20   12   13 1   
    21   12   18 1   
    22   12   46 1   
    23   13   14 1   
    24   13   36 1   
    25   14   16 1   
    26   15   19 1   
    27   16   17 1   
    28   17   18 1   
    29   17   37 1   
    30   17   38 1   
    31   19   39 1   
    32   21   24 1   
    33   21   41 1   
    34   22   23 1   
    35   23   40 1   
    36   25   26 1   
    37   25   42 1   
    38   25   43 1   
    39   26   27 1   
    40   26   44 1   
    41   27   28 1   
    42   27   45 1   
    43   28   29 1   
    44   29   30 1   
    45   30   31 1   
    46   31   32 1   
    47   31   33 1   
    48   31   34 1   
@<TRIPOS>SUBSTRUCTURE
     1 37J         1 TEMP              0 ****  ****    0 ROOT
