@<TRIPOS>MOLECULE
37J
   46    48     1     0     0
SMALL
bcc


@<TRIPOS>ATOM
      1 N1         -0.1110    0.5540    0.0110 n2        1 37J     -0.170000
      2 C2          1.2440    0.6530    0.2900 c2        1 37J     -0.080000
      3 O2         -3.0380   -1.7820    0.7250 o         1 37J     -0.301000
      4 N3          3.7710    0.9420   -3.4410 n2        1 37J     -0.177000
      5 C4          2.1510    0.9330   -0.8930 c2        1 37J      0.378000
      6 N4          1.8170    0.1780   -4.5960 n2        1 37J     -0.133000
      7 C5         -3.1370   -0.7320    1.3770 c2        1 37J      0.352000
      8 C6         -4.2650   -0.5010    2.3200 c2        1 37J     -0.092000
      9 F6          6.1570   -2.4580   -7.5050 f         1 37J     -0.161333
     10 F4          7.4440   -1.2410   -6.2610 f         1 37J     -0.161333
     11 F5          6.9370   -0.5700   -8.2540 f         1 37J     -0.161333
     12 C14         5.1640   -0.4280   -6.5870 c2        1 37J     -0.275000
     13 C15         5.2140    0.1660   -5.3680 c2        1 37J      0.059000
     14 C16         4.0380    0.9400   -4.8860 c3        1 37J     -0.105000
     15 C19         2.4950    0.5510   -3.3140 c2        1 37J      0.117000
     16 C17         2.7220    0.3800   -5.5130 c2        1 37J     -0.063000
     17 C18         2.7370    0.0530   -6.9610 c3        1 37J     -0.171000
     18 C13         4.0320   -0.3990   -7.4580 c1        1 37J      0.003000
     19 N5          1.7570    0.4310   -2.1340 n         1 37J     -0.287000
     20 O1          3.2070    1.5550   -0.7130 o         1 37J     -0.296000
     21 C3         -1.1140    0.3500    0.7110 c1        1 37J      0.208000
     22 S           1.3620    0.2980    3.0440 sh        1 37J      0.312000
     23 C1          1.8610    0.5640    1.5030 c2        1 37J     -0.315000
     24 N2         -2.2530    0.3620    1.2490 n2        1 37J     -0.261000
     25 C11        -5.6170   -0.6270    1.7230 c3        1 37J     -0.145000
     26 C10        -6.7350   -0.4480    2.6700 c2        1 37J     -0.044000
     27 C9         -6.5370   -0.1660    3.9840 c2        1 37J     -0.208000
     28 C8         -5.2390   -0.0160    4.5390 c1        1 37J     -0.066000
     29 C7         -4.1270   -0.2350    3.6500 c2        1 37J      0.053000
     30 O3         -2.8360   -0.1790    4.1580 os        1 37J     -0.261000
     31 C12        -2.6590    0.1170    5.5260 c3        1 37J      0.563000
     32 F1         -1.3050    0.0890    5.6670 f         1 37J     -0.135667
     33 F2         -3.0990    1.3510    5.8530 f         1 37J     -0.135667
     34 F3         -3.1930   -0.8260    6.3340 f         1 37J     -0.135667
     35 H1          4.1810    2.0180   -5.2080 h1        1 37J      0.172000
     36 H3          6.1150    0.1580   -4.7270 ha        1 37J      0.179000
     37 H4          1.9790   -0.7480   -7.2110 hc        1 37J      0.173000
     38 H5          2.4390    0.9620   -7.5650 hc        1 37J      0.173000
     39 H6          0.8490    0.0260   -2.2310 hn        1 37J      0.272000
     40 H7          2.9690    0.7070    1.4830 h4        1 37J      0.208000
     41 H8          0.0490    0.2070    2.9240 hs        1 37J      0.009000
     42 H9         -5.7210    0.1300    0.8890 hc        1 37J      0.160500
     43 H10        -5.6950   -1.6480    1.2400 hc        1 37J      0.160500
     44 H11        -7.7460   -0.5470    2.2400 ha        1 37J      0.144000
     45 H12        -7.3890   -0.0330    4.6720 ha        1 37J      0.164000
     46 C20         6.3900   -1.1560   -7.1420 c3        1 37J      0.485000
@<TRIPOS>BOND
     1    1    2 1   
     2    1   21 1   
     3    2    5 1   
     4    2   23 1   
     5    3    7 1   
     6    4   14 1   
     7    4   15 1   
     8    5   19 1   
     9    5   20 1   
    10    6   15 1   
    11    6   16 1   
    12    7    8 1   
    13    7   24 1   
    14    8   25 1   
    15    8   29 1   
    16    9   46 1   
    17   10   46 1   
    18   11   46 1   
    19   12   13 1   
    20   12   18 1   
    21   12   46 1   
    22   13   14 1   
    23   13   36 1   
    24   14   16 1   
    25   14   35 1   
    26   15   19 1   
    27   16   17 1   
    28   17   18 1   
    29   17   37 1   
    30   17   38 1   
    31   19   39 1   
    32   21   24 1   
    33   22   23 1   
    34   22   41 1   
    35   23   40 1   
    36   25   26 1   
    37   25   42 1   
    38   25   43 1   
    39   26   27 1   
    40   26   44 1   
    41   27   28 1   
    42   27   45 1   
    43   28   29 1   
    44   29   30 1   
    45   30   31 1   
    46   31   32 1   
    47   31   33 1   
    48   31   34 1   
@<TRIPOS>SUBSTRUCTURE
     1 37J         1 TEMP              0 ****  ****    0 ROOT
