@<TRIPOS>MOLECULE
37L
   97   100     1     0     0
SMALL
bcc


@<TRIPOS>ATOM
      1 CAD         2.7070    0.9280    0.1300 c3        1 37L      0.107700
      2 OBE         3.8450    0.3110    0.7300 os        1 37L     -0.314900
      3 CBS         3.7460    0.0460    2.0790 ca        1 37L      0.133600
      4 CAS         2.5420    0.0780    2.7940 ca        1 37L     -0.207000
      5 CBU         4.9550   -0.2840    2.7270 ca        1 37L      0.040100
      6 OBG         6.1440   -0.4300    2.0370 os        1 37L     -0.310900
      7 CAF         6.6750    0.8010    1.5420 c3        1 37L      0.111700
      8 CBT         4.9270   -0.5760    4.1080 ca        1 37L      0.133600
      9 OBF         6.1550   -0.8590    4.6740 os        1 37L     -0.314900
     10 CAE         6.1380   -1.2580    6.0390 c3        1 37L      0.107700
     11 CAT         3.7200   -0.5610    4.8150 ca        1 37L     -0.207000
     12 CBP         2.5300   -0.2310    4.1550 ca        1 37L     -0.022300
     13 CBW         1.2430   -0.2470    4.9250 c3        1 37L     -0.074400
     14 CAW         0.3190   -1.3540    4.4140 c3        1 37L     -0.047200
     15 CAK         0.8750   -2.7010    4.6970 c2        1 37L     -0.167200
     16 CAA         0.1390   -3.7320    5.1040 c2        1 37L     -0.226000
     17 CBL         0.5220    1.1030    4.8500 c         1 37L      0.652100
     18 OAI         0.8710    1.9780    4.0370 o         1 37L     -0.579100
     19 N          -0.6140    1.3040    5.6550 n         1 37L     -0.431800
     20 CBB        -0.7030    0.6990    6.9720 c3        1 37L      0.072000
     21 CAV        -0.1220    1.5700    8.0900 c3        1 37L     -0.110400
     22 CAU        -0.7300    2.9580    8.0660 c3        1 37L     -0.080400
     23 CB         -0.6810    3.5760    6.6840 c3        1 37L     -0.101400
     24 CA         -1.2750    2.6120    5.6460 c3        1 37L      0.044700
     25 C          -1.3710    3.2430    4.2650 c         1 37L      0.655100
     26 O          -1.7270    2.6900    3.2240 o         1 37L     -0.538000
     27 OBI        -1.1050    4.5760    4.2860 os        1 37L     -0.430900
     28 CBV        -1.3310    5.3530    3.0810 c3        1 37L      0.195400
     29 CBA         0.0360    5.7200    2.5080 c3        1 37L     -0.084400
     30 CAY         0.6250    4.5630    1.7240 c3        1 37L     -0.050100
     31 CBM         2.0720    4.7630    1.4410 ca        1 37L     -0.066300
     32 CAQ         2.4810    5.7520    0.5350 ca        1 37L     -0.177000
     33 CAO         3.0250    3.9600    2.0670 ca        1 37L     -0.135000
     34 CAP         4.3850    4.1280    1.7980 ca        1 37L     -0.180000
     35 CBQ         4.8010    5.1080    0.8970 ca        1 37L      0.086100
     36 OBC         6.1170    5.3490    0.5440 os        1 37L     -0.307900
     37 CAB         7.0910    4.5920    1.2490 c3        1 37L      0.111700
     38 CBR         3.8360    5.9330    0.2610 ca        1 37L      0.100100
     39 OBD         4.3440    6.8700   -0.6190 os        1 37L     -0.311900
     40 CAC         3.3930    7.7670   -1.1820 c3        1 37L      0.110700
     41 CBO        -2.0980    6.5770    3.4890 ca        1 37L     -0.080300
     42 CAR        -3.1270    7.0340    2.6710 ca        1 37L     -0.167000
     43 CAN        -1.7720    7.2620    4.6660 ca        1 37L     -0.175000
     44 CAL        -2.4770    8.4100    5.0160 ca        1 37L     -0.103000
     45 CAM        -3.5040    8.8910    4.2070 ca        1 37L     -0.213000
     46 CBN        -3.8340    8.2040    3.0270 ca        1 37L      0.160100
     47 OBH        -4.8190    8.5750    2.1540 os        1 37L     -0.285900
     48 CAX        -5.5400    9.7690    2.4810 c3        1 37L     -0.011600
     49 CBJ        -6.5750   10.0050    1.3390 c         1 37L      0.926600
     50 OAJ        -7.7620    9.6560    1.5740 o         1 37L     -0.818800
     51 OAG        -6.1660   10.5840    0.3000 o         1 37L     -0.818800
     52 H1          2.4250    1.8620    0.6790 h1        1 37L      0.047700
     53 H2          1.8510    0.2120    0.0960 h1        1 37L      0.047700
     54 H3          3.0620    1.1670   -0.9050 h1        1 37L      0.047700
     55 H4          1.6030    0.3770    2.3020 ha        1 37L      0.149500
     56 H5          5.9570    1.2800    0.8330 h1        1 37L      0.041033
     57 H6          7.6100    0.4890    1.0150 h1        1 37L      0.041033
     58 H7          6.9060    1.4930    2.3880 h1        1 37L      0.041033
     59 H8          5.7680   -0.4270    6.6880 h1        1 37L      0.047700
     60 H9          7.2140   -1.4780    6.2560 h1        1 37L      0.047700
     61 H10         5.5130   -2.1730    6.1800 h1        1 37L      0.047700
     62 H11         3.7010   -0.7980    5.8870 ha        1 37L      0.149500
     63 H12         1.4940   -0.4510    6.0060 hc        1 37L      0.067700
     64 H13        -0.6970   -1.2460    4.8780 hc        1 37L      0.068200
     65 H14         0.1920   -1.2380    3.3020 hc        1 37L      0.068200
     66 H15         1.9610   -2.8010    4.5250 ha        1 37L      0.131000
     67 H16        -0.9430   -3.6600    5.2810 ha        1 37L      0.111000
     68 H17         0.5720   -4.7250    5.2820 ha        1 37L      0.111000
     69 H18        -1.7990    0.5260    7.1810 h1        1 37L      0.057700
     70 H19        -0.2040   -0.3080    6.9740 h1        1 37L      0.057700
     71 H20         0.9900    1.6410    7.9760 hc        1 37L      0.047700
     72 H21        -0.3330    1.0760    9.0730 hc        1 37L      0.047700
     73 H22        -0.1850    3.6190    8.7890 hc        1 37L      0.045700
     74 H23        -1.7980    2.8980    8.4080 hc        1 37L      0.045700
     75 H24        -1.2700    4.5310    6.6650 hc        1 37L      0.075200
     76 H25         0.3730    3.8290    6.4010 hc        1 37L      0.075200
     77 H26        -2.3570    2.4100    5.9320 h1        1 37L      0.086700
     78 H27        -1.9210    4.7430    2.3390 h1        1 37L      0.087700
     79 H28         0.7180    6.0040    3.3510 hc        1 37L      0.061200
     80 H29        -0.0810    6.6150    1.8450 hc        1 37L      0.061200
     81 H30         0.0670    4.4470    0.7560 hc        1 37L      0.064700
     82 H31         0.4750    3.6120    2.3110 hc        1 37L      0.064700
     83 H32         1.7200    6.3830    0.0520 ha        1 37L      0.145000
     84 H33         2.7000    3.1870    2.7840 ha        1 37L      0.157000
     85 H34         5.1180    3.4790    2.2970 ha        1 37L      0.134000
     86 H35         7.0300    4.7870    2.3480 h1        1 37L      0.038700
     87 H36         8.0620    4.9660    0.8350 h1        1 37L      0.038700
     88 H37         6.9720    3.4980    1.0430 h1        1 37L      0.038700
     89 H38         2.8580    8.3360   -0.3830 h1        1 37L      0.043700
     90 H39         4.0220    8.4540   -1.8030 h1        1 37L      0.043700
     91 H40         2.6630    7.2150   -1.8240 h1        1 37L      0.043700
     92 H41        -3.4070    6.5080    1.7470 ha        1 37L      0.149000
     93 H42        -0.9650    6.8800    5.3060 ha        1 37L      0.124000
     94 H43        -2.2200    8.9470    5.9410 ha        1 37L      0.115000
     95 H44        -4.0510    9.8000    4.4930 ha        1 37L      0.143000
     96 H45        -4.8280   10.6310    2.5360 h1        1 37L      0.020700
     97 H46        -6.0650    9.6290    3.4590 h1        1 37L      0.020700
@<TRIPOS>BOND
     1    1    2 1   
     2    1   52 1   
     3    1   53 1   
     4    1   54 1   
     5    2    3 1   
     6    3    4 ar  
     7    3    5 ar  
     8    4   12 ar  
     9    4   55 1   
    10    5    6 1   
    11    5    8 ar  
    12    6    7 1   
    13    7   56 1   
    14    7   57 1   
    15    7   58 1   
    16    8    9 1   
    17    8   11 ar  
    18    9   10 1   
    19   10   59 1   
    20   10   60 1   
    21   10   61 1   
    22   11   12 ar  
    23   11   62 1   
    24   12   13 1   
    25   13   14 1   
    26   13   17 1   
    27   13   63 1   
    28   14   15 1   
    29   14   64 1   
    30   14   65 1   
    31   15   16 2   
    32   15   66 1   
    33   16   67 1   
    34   16   68 1   
    35   17   18 2   
    36   17   19 1   
    37   19   20 1   
    38   19   24 1   
    39   20   21 1   
    40   20   69 1   
    41   20   70 1   
    42   21   22 1   
    43   21   71 1   
    44   21   72 1   
    45   22   23 1   
    46   22   73 1   
    47   22   74 1   
    48   23   24 1   
    49   23   75 1   
    50   23   76 1   
    51   24   25 1   
    52   24   77 1   
    53   25   26 2   
    54   25   27 1   
    55   27   28 1   
    56   28   29 1   
    57   28   41 1   
    58   28   78 1   
    59   29   30 1   
    60   29   79 1   
    61   29   80 1   
    62   30   31 1   
    63   30   81 1   
    64   30   82 1   
    65   31   32 ar  
    66   31   33 ar  
    67   32   38 ar  
    68   32   83 1   
    69   33   34 ar  
    70   33   84 1   
    71   34   35 ar  
    72   34   85 1   
    73   35   36 1   
    74   35   38 ar  
    75   36   37 1   
    76   37   86 1   
    77   37   87 1   
    78   37   88 1   
    79   38   39 1   
    80   39   40 1   
    81   40   89 1   
    82   40   90 1   
    83   40   91 1   
    84   41   42 ar  
    85   41   43 ar  
    86   42   46 ar  
    87   42   92 1   
    88   43   44 ar  
    89   43   93 1   
    90   44   45 ar  
    91   44   94 1   
    92   45   46 ar  
    93   45   95 1   
    94   46   47 1   
    95   47   48 1   
    96   48   49 1   
    97   48   96 1   
    98   48   97 1   
    99   49   50 1   
   100   49   51 1   
@<TRIPOS>SUBSTRUCTURE
     1 37L         1 TEMP              0 ****  ****    0 ROOT
