@<TRIPOS>MOLECULE
37L
   97   100     1     0     0
SMALL
bcc


@<TRIPOS>ATOM
      1 CAD         2.6580    0.8470    0.1630 c3        1 37L      0.107700
      2 OBE         3.8010    0.2380    0.7630 os        1 37L     -0.314900
      3 CBS         3.7190    0.0070    2.1200 ca        1 37L      0.133600
      4 CAS         2.5240    0.0620    2.8490 ca        1 37L     -0.207000
      5 CBU         4.9350   -0.3140    2.7600 ca        1 37L      0.040100
      6 OBG         6.1140   -0.4830    2.0570 os        1 37L     -0.310900
      7 CAF         6.6440    0.7330    1.5260 c3        1 37L      0.111700
      8 CBT         4.9230   -0.5730    4.1470 ca        1 37L      0.133600
      9 OBF         6.1570   -0.8480    4.7030 os        1 37L     -0.314900
     10 CAE         6.1560   -1.2150    6.0780 c3        1 37L      0.107700
     11 CAT         3.7250   -0.5340    4.8690 ca        1 37L     -0.207000
     12 CBP         2.5290   -0.2150    4.2170 ca        1 37L     -0.022300
     13 CBW         1.2520   -0.2060    5.0030 c3        1 37L     -0.074400
     14 CAW         0.3160   -1.3200    4.5310 c3        1 37L     -0.047200
     15 CAK         0.8690   -2.6630    4.8370 c2        1 37L     -0.167200
     16 CAA         0.1330   -3.6810    5.2760 c2        1 37L     -0.226000
     17 CBL         0.5360    1.1450    4.9070 c         1 37L      0.652100
     18 OAI         0.8790    1.9990    4.0680 o         1 37L     -0.579100
     19 N          -0.5870    1.3710    5.7220 n         1 37L     -0.431800
     20 CBB        -0.6610    0.7980    7.0540 c3        1 37L      0.072000
     21 CAV        -0.0620    1.6930    8.1420 c3        1 37L     -0.110400
     22 CAU        -0.6630    3.0830    8.0930 c3        1 37L     -0.080400
     23 CB         -0.6300    3.6680    6.6960 c3        1 37L     -0.101400
     24 CA         -1.2420    2.6820    5.6900 c3        1 37L      0.044700
     25 C          -1.3540    3.2790    4.2950 c         1 37L      0.655100
     26 O          -1.7270    2.7030    3.2720 o         1 37L     -0.538000
     27 OBI        -1.0830    4.6110    4.2800 os        1 37L     -0.430900
     28 CBV        -1.3230    5.3590    3.0590 c3        1 37L      0.196400
     29 CBA         0.0380    5.7070    2.4590 c3        1 37L     -0.084400
     30 CAY         0.6120    4.5280    1.6970 c3        1 37L     -0.050100
     31 CBM         2.0560    4.7150    1.3900 ca        1 37L     -0.066300
     32 CAQ         2.4580    5.6790    0.4550 ca        1 37L     -0.177000
     33 CAO         3.0140    3.9220    2.0240 ca        1 37L     -0.135000
     34 CAP         4.3700    4.0770    1.7330 ca        1 37L     -0.180000
     35 CBQ         4.7800    5.0330    0.8030 ca        1 37L      0.086100
     36 OBC         6.0920    5.2600    0.4280 os        1 37L     -0.307900
     37 CAB         7.0720    4.5160    1.1390 c3        1 37L      0.111700
     38 CBR         3.8100    5.8460    0.1590 ca        1 37L      0.100100
     39 OBD         4.3100    6.7590   -0.7500 os        1 37L     -0.311900
     40 CAC         3.3560    7.6470   -1.3230 c3        1 37L      0.110700
     41 CBO        -2.0790    6.5960    3.4490 ca        1 37L     -0.080300
     42 CAR        -3.1330    7.0260    2.6480 ca        1 37L     -0.166000
     43 CAN        -1.7170    7.3200    4.5920 ca        1 37L     -0.175000
     44 CAL        -2.4130    8.4780    4.9250 ca        1 37L     -0.103000
     45 CAM        -3.4650    8.9320    4.1330 ca        1 37L     -0.213000
     46 CBN        -3.8300    8.2070    2.9880 ca        1 37L      0.160100
     47 OBH        -4.8420    8.5480    2.1340 os        1 37L     -0.285900
     48 CAX        -5.5560    9.7510    2.4440 c3        1 37L     -0.011600
     49 CBJ        -6.6290    9.9470    1.3300 c         1 37L      0.926600
     50 OAJ        -7.8040    9.5940    1.6120 o         1 37L     -0.818800
     51 OAG        -6.2570   10.5010    0.2640 o         1 37L     -0.818800
     52 H1          2.3870    1.7940    0.6930 h1        1 37L      0.047700
     53 H2          3.0000    1.0590   -0.8810 h1        1 37L      0.047700
     54 H3          1.7980    0.1330    0.1580 h1        1 37L      0.047700
     55 H4          1.5810    0.3530    2.3620 ha        1 37L      0.149500
     56 H5          7.5710    0.4040    0.9950 h1        1 37L      0.041033
     57 H6          5.9190    1.2000    0.8150 h1        1 37L      0.041033
     58 H7          6.8900    1.4440    2.3520 h1        1 37L      0.041033
     59 H8          7.2340   -1.4350    6.2860 h1        1 37L      0.047700
     60 H9          5.7990   -0.3670    6.7120 h1        1 37L      0.047700
     61 H10         5.5290   -2.1230    6.2480 h1        1 37L      0.047700
     62 H11         3.7200   -0.7460    5.9470 ha        1 37L      0.149500
     63 H12         1.5160   -0.3860    6.0860 hc        1 37L      0.067700
     64 H13        -0.6940   -1.1970    5.0060 hc        1 37L      0.068200
     65 H14         0.1740   -1.2290    3.4180 hc        1 37L      0.068200
     66 H15         1.9520   -2.7730    4.6530 ha        1 37L      0.131000
     67 H16        -0.9460   -3.6000    5.4650 ha        1 37L      0.111000
     68 H17         0.5640   -4.6720    5.4710 ha        1 37L      0.111000
     69 H18        -1.7550    0.6360    7.2820 h1        1 37L      0.057700
     70 H19        -0.1670   -0.2100    7.0740 h1        1 37L      0.057700
     71 H20        -0.2620    1.2240    9.1400 hc        1 37L      0.047700
     72 H21         1.0500    1.7560    8.0120 hc        1 37L      0.047700
     73 H22        -1.7270    3.0380    8.4500 hc        1 37L      0.045700
     74 H23        -0.1050    3.7590    8.7920 hc        1 37L      0.045700
     75 H24         0.4210    3.9090    6.3920 hc        1 37L      0.075200
     76 H25        -1.2150    4.6250    6.6620 hc        1 37L      0.075200
     77 H26        -2.3220    2.4920    5.9950 h1        1 37L      0.086700
     78 H27        -1.9250    4.7350    2.3410 h1        1 37L      0.087700
     79 H28         0.7330    6.0100    3.2850 hc        1 37L      0.061200
     80 H29        -0.0860    6.5850    1.7740 hc        1 37L      0.061200
     81 H30         0.0410    4.3900    0.7390 hc        1 37L      0.064700
     82 H31         0.4660    3.5930    2.3090 hc        1 37L      0.064700
     83 H32         1.6940    6.3010   -0.0340 ha        1 37L      0.145000
     84 H33         2.6940    3.1680    2.7630 ha        1 37L      0.157000
     85 H34         5.1070    3.4370    2.2390 ha        1 37L      0.134000
     86 H35         8.0390    4.8750    0.7040 h1        1 37L      0.038700
     87 H36         6.9450    3.4180    0.9620 h1        1 37L      0.038700
     88 H37         7.0250    4.7380    2.2330 h1        1 37L      0.038700
     89 H38         2.6160    7.0830   -1.9420 h1        1 37L      0.043700
     90 H39         2.8340    8.2370   -0.5310 h1        1 37L      0.043700
     91 H40         3.9800    8.3160   -1.9680 h1        1 37L      0.043700
     92 H41        -3.4410    6.4700    1.7510 ha        1 37L      0.150000
     93 H42        -0.8900    6.9590    5.2200 ha        1 37L      0.124000
     94 H43        -2.1290    9.0450    5.8240 ha        1 37L      0.115000
     95 H44        -4.0030    9.8500    4.4060 ha        1 37L      0.143000
     96 H45        -6.0490    9.6410    3.4430 h1        1 37L      0.020700
     97 H46        -4.8460   10.6150    2.4480 h1        1 37L      0.020700
@<TRIPOS>BOND
     1    1    2 1   
     2    1   52 1   
     3    1   53 1   
     4    1   54 1   
     5    2    3 1   
     6    3    4 ar  
     7    3    5 ar  
     8    4   12 ar  
     9    4   55 1   
    10    5    6 1   
    11    5    8 ar  
    12    6    7 1   
    13    7   56 1   
    14    7   57 1   
    15    7   58 1   
    16    8    9 1   
    17    8   11 ar  
    18    9   10 1   
    19   10   59 1   
    20   10   60 1   
    21   10   61 1   
    22   11   12 ar  
    23   11   62 1   
    24   12   13 1   
    25   13   14 1   
    26   13   17 1   
    27   13   63 1   
    28   14   15 1   
    29   14   64 1   
    30   14   65 1   
    31   15   16 2   
    32   15   66 1   
    33   16   67 1   
    34   16   68 1   
    35   17   18 2   
    36   17   19 1   
    37   19   20 1   
    38   19   24 1   
    39   20   21 1   
    40   20   69 1   
    41   20   70 1   
    42   21   22 1   
    43   21   71 1   
    44   21   72 1   
    45   22   23 1   
    46   22   73 1   
    47   22   74 1   
    48   23   24 1   
    49   23   75 1   
    50   23   76 1   
    51   24   25 1   
    52   24   77 1   
    53   25   26 2   
    54   25   27 1   
    55   27   28 1   
    56   28   29 1   
    57   28   41 1   
    58   28   78 1   
    59   29   30 1   
    60   29   79 1   
    61   29   80 1   
    62   30   31 1   
    63   30   81 1   
    64   30   82 1   
    65   31   32 ar  
    66   31   33 ar  
    67   32   38 ar  
    68   32   83 1   
    69   33   34 ar  
    70   33   84 1   
    71   34   35 ar  
    72   34   85 1   
    73   35   36 1   
    74   35   38 ar  
    75   36   37 1   
    76   37   86 1   
    77   37   87 1   
    78   37   88 1   
    79   38   39 1   
    80   39   40 1   
    81   40   89 1   
    82   40   90 1   
    83   40   91 1   
    84   41   42 ar  
    85   41   43 ar  
    86   42   46 ar  
    87   42   92 1   
    88   43   44 ar  
    89   43   93 1   
    90   44   45 ar  
    91   44   94 1   
    92   45   46 ar  
    93   45   95 1   
    94   46   47 1   
    95   47   48 1   
    96   48   49 1   
    97   48   96 1   
    98   48   97 1   
    99   49   50 1   
   100   49   51 1   
@<TRIPOS>SUBSTRUCTURE
     1 37L         1 TEMP              0 ****  ****    0 ROOT
