@<TRIPOS>MOLECULE
37N
   41    43     1     0     0
SMALL
bcc


@<TRIPOS>ATOM
      1 CAP         0.0300    1.0390    0.0180 c3        1 37N     -0.141400
      2 CAK         1.3090    0.3350   -0.0270 cc        1 37N      0.267000
      3 CAJ         2.1840   -0.1820    0.9170 cd        1 37N     -0.241600
      4 CAB         2.0370   -0.1720    2.3530 ca        1 37N     -0.025000
      5 CAC         2.4750   -1.2600    3.1210 ca        1 37N     -0.175000
      6 CAD         2.2880   -1.2620    4.5180 ca        1 37N      0.131600
      7 NAQ         2.7850   -2.3270    5.2960 nu        1 37N     -0.777500
      8 SAR         3.2370   -2.2800    6.8550 sy        1 37N      1.513200
      9 CAS         4.3720   -1.0400    6.9410 ca        1 37N     -0.387500
     10 CAT         4.0030    0.2920    7.1650 ca        1 37N     -0.007500
     11 CAU         4.9720    1.2950    7.2530 ca        1 37N     -0.162000
     12 CAV         6.3200    0.9760    7.1210 ca        1 37N     -0.076000
     13 CAW         6.7040   -0.3510    6.9050 ca        1 37N     -0.162000
     14 CAX         5.7360   -1.3440    6.8140 ca        1 37N     -0.007500
     15 OAY         2.1660   -1.9950    7.7190 o         1 37N     -0.663800
     16 OAZ         3.8940   -3.5170    7.1080 o         1 37N     -0.663800
     17 CAE         1.6200   -0.1770    5.1230 ca        1 37N     -0.153000
     18 CAF         1.2490    0.9310    4.3650 ca        1 37N     -0.098600
     19 CAG         0.6840    2.1620    5.0680 c         1 37N      0.912200
     20 OAH         1.0220    2.3320    6.2740 o         1 37N     -0.822300
     21 OAI        -0.0530    2.9370    4.4020 o         1 37N     -0.822300
     22 CAA         1.4430    0.9290    2.9830 ca        1 37N     -0.112000
     23 CAN         3.2890   -0.7300    0.1150 cd        1 37N      0.328600
     24 CAO         4.5020   -1.3770    0.6520 c3        1 37N     -0.131400
     25 NAM         3.0200   -0.5270   -1.1910 nc        1 37N     -0.392300
     26 OAL         1.8640    0.0930   -1.3090 os        1 37N     -0.136100
     27 H1         -0.6140    0.7470   -0.8480 hc        1 37N      0.069033
     28 H2          0.2020    2.1460   -0.0210 hc        1 37N      0.069033
     29 H3         -0.4980    0.7990    0.9770 hc        1 37N      0.069033
     30 H4          2.9530   -2.1150    2.6210 ha        1 37N      0.116000
     31 H5          2.9420   -3.1570    4.7700 hn        1 37N      0.445800
     32 H6          2.9350    0.5770    7.2670 ha        1 37N      0.170500
     33 H7          4.6540    2.3370    7.4130 ha        1 37N      0.141000
     34 H8          7.0840    1.7640    7.1840 ha        1 37N      0.125000
     35 H9          7.7680   -0.6070    6.8050 ha        1 37N      0.141000
     36 H10         6.0380   -2.3940    6.6540 ha        1 37N      0.170500
     37 H11         1.3790   -0.1690    6.2020 ha        1 37N      0.169000
     38 H13         1.1170    1.8090    2.4050 ha        1 37N      0.154000
     39 H14         5.3820   -1.2190   -0.0190 hc        1 37N      0.054700
     40 H15         4.7340   -0.9520    1.6610 hc        1 37N      0.054700
     41 H16         4.3290   -2.4780    0.7560 hc        1 37N      0.054700
@<TRIPOS>BOND
     1    1    2 1   
     2    1   27 1   
     3    1   28 1   
     4    1   29 1   
     5    2    3 2   
     6    2   26 1   
     7    3    4 1   
     8    3   23 1   
     9    4    5 ar  
    10    4   22 ar  
    11    5    6 ar  
    12    5   30 1   
    13    6    7 1   
    14    6   17 ar  
    15    7    8 1   
    16    7   31 1   
    17    8    9 1   
    18    8   15 2   
    19    8   16 2   
    20    9   10 ar  
    21    9   14 ar  
    22   10   11 ar  
    23   10   32 1   
    24   11   12 ar  
    25   11   33 1   
    26   12   13 ar  
    27   12   34 1   
    28   13   14 ar  
    29   13   35 1   
    30   14   36 1   
    31   17   18 ar  
    32   17   37 1   
    33   18   19 1   
    34   18   22 ar  
    35   19   20 1   
    36   19   21 1   
    37   22   38 1   
    38   23   24 1   
    39   23   25 2   
    40   24   39 1   
    41   24   40 1   
    42   24   41 1   
    43   25   26 1   
@<TRIPOS>SUBSTRUCTURE
     1 37N         1 TEMP              0 ****  ****    0 ROOT
