@<TRIPOS>MOLECULE
37O
   87    92     1     0     0
SMALL
bcc


@<TRIPOS>ATOM
      1 C01        -0.4260    0.0610    0.0740 ca        1 37O      0.494200
      2 N02         0.8910    0.2540   -0.0680 nb        1 37O     -0.746000
      3 C03         1.6210    0.3530    1.1110 ca        1 37O      0.898900
      4 N04         1.0920    0.2490    2.3890 nb        1 37O     -0.797000
      5 C05        -0.2600    0.0760    2.4850 ca        1 37O      0.628200
      6 C06        -1.0730   -0.0430    1.3140 ca        1 37O     -0.435900
      7 N07        -0.8730    0.0300    3.7460 n         1 37O     -0.445300
      8 C08        -2.2910   -0.0640    3.8640 c         1 37O      0.829500
      9 N09        -3.0940   -0.0380    2.7090 n         1 37O     -0.381000
     10 C10        -2.5310   -0.3100    1.4030 c3        1 37O      0.175300
     11 N11         2.9990    0.6480    1.0460 nu        1 37O     -0.697300
     12 C12         3.7600    0.3660   -0.1160 ca        1 37O      0.091600
     13 C13         3.5020    1.0200   -1.3370 ca        1 37O     -0.106000
     14 C14         4.3040    0.7890   -2.4460 ca        1 37O     -0.161000
     15 C15         5.4090   -0.0940   -2.3850 ca        1 37O      0.134600
     16 C16         5.6670   -0.7340   -1.1540 ca        1 37O     -0.161000
     17 C17         4.8550   -0.5180   -0.0490 ca        1 37O     -0.106000
     18 N18         6.1530   -0.3650   -3.5600 nh        1 37O     -0.635000
     19 C19         7.1110   -1.4540   -3.4810 c3        1 37O      0.185800
     20 C20         7.7230   -1.7990   -4.8540 c3        1 37O      0.165300
     21 N21         8.2650   -0.6360   -5.5410 n3        1 37O     -0.732600
     22 C22         7.3050    0.4560   -5.6120 c3        1 37O      0.165300
     23 C23         6.6890    0.8050   -4.2430 c3        1 37O      0.185800
     24 C24         8.8230   -0.9670   -6.8330 c3        1 37O      0.157100
     25 C25        -4.5000    0.1020    2.8010 ca        1 37O      0.136600
     26 C26        -5.0830    0.9070    3.7990 ca        1 37O     -0.213500
     27 C27        -6.4770    1.0590    3.8340 ca        1 37O      0.174600
     28 C28        -7.3140    0.4400    2.8990 ca        1 37O     -0.292000
     29 C29        -6.7160   -0.3570    1.9170 ca        1 37O      0.174600
     30 C30        -5.3270   -0.5400    1.8540 ca        1 37O     -0.213500
     31 O31        -7.4190   -1.0240    0.9310 os        1 37O     -0.324400
     32 O32        -6.9310    1.8770    4.8510 os        1 37O     -0.324400
     33 C33        -8.8360   -0.9210    0.9870 c3        1 37O      0.114200
     34 C34        -8.3420    2.0170    4.9670 c3        1 37O      0.114200
     35 O35        -2.7900   -0.1320    5.0090 o         1 37O     -0.636500
     36 C36        -0.0860   -0.0730    4.9670 c3        1 37O      0.152300
     37 C37         0.3610   -1.4640    5.3020 ca        1 37O     -0.150300
     38 C38        -0.5330   -2.3660    5.8860 ca        1 37O     -0.080500
     39 C39        -0.1300   -3.6490    6.2400 ca        1 37O     -0.181000
     40 C40         1.2010   -4.0620    6.0110 ca        1 37O      0.081600
     41 C41         2.1010   -3.1420    5.4150 ca        1 37O     -0.181000
     42 C42         1.6770   -1.8660    5.0670 ca        1 37O     -0.080500
     43 N43         1.6810   -5.3370    6.3440 ns        1 37O     -0.476100
     44 C44         0.9820   -6.3890    6.9260 c         1 37O      0.663100
     45 C45         1.7940   -7.6550    7.1630 c3        1 37O     -0.152400
     46 C46         0.9490   -8.7310    7.7940 c3        1 37O     -0.087100
     47 O47        -0.2190   -6.3160    7.2350 o         1 37O     -0.581100
     48 H1         -1.0000   -0.0200   -0.8690 h4        1 37O      0.030100
     49 H2         -2.7140   -1.3990    1.1440 h1        1 37O      0.057200
     50 H3         -3.0800    0.3190    0.6420 h1        1 37O      0.057200
     51 H4          3.4960    0.4950    1.9020 hn        1 37O      0.434800
     52 H5          2.6550    1.7180   -1.4280 ha        1 37O      0.142000
     53 H6          4.0540    1.3020   -3.3880 ha        1 37O      0.137500
     54 H7          6.5180   -1.4230   -1.0440 ha        1 37O      0.137500
     55 H8          5.0880   -1.0450    0.8900 ha        1 37O      0.142000
     56 H9          7.9500   -1.2190   -2.7630 h1        1 37O      0.044200
     57 H10         6.9420   -2.3260   -5.4760 h1        1 37O      0.039200
     58 H11         7.8500    1.3690   -5.9830 h1        1 37O      0.039200
     59 H12         5.8520    1.5350   -4.4230 h1        1 37O      0.044200
     60 H13         9.6130   -1.7500   -6.6940 h1        1 37O      0.033367
     61 H14         8.0600   -1.3550   -7.5630 h1        1 37O      0.033367
     62 H15         9.2970   -0.0480   -7.2670 h1        1 37O      0.033367
     63 H16        -4.4730    1.4010    4.5710 ha        1 37O      0.164500
     64 H17        -8.4020    0.5720    2.9370 ha        1 37O      0.144000
     65 H18        -4.9220   -1.1920    1.0680 ha        1 37O      0.164500
     66 H19        -9.1760   -1.5550    0.1290 h1        1 37O      0.044867
     67 H20        -9.2260   -1.3260    1.9530 h1        1 37O      0.044867
     68 H21        -9.1600    0.1380    0.8470 h1        1 37O      0.044867
     69 H22        -8.8260    1.0260    5.1430 h1        1 37O      0.044867
     70 H23        -8.4630    2.6800    5.8610 h1        1 37O      0.044867
     71 H24        -8.7660    2.5050    4.0560 h1        1 37O      0.044867
     72 H25        -0.7240    0.3170    5.8160 h1        1 37O      0.084200
     73 H26         0.8100    0.6050    4.8700 h1        1 37O      0.084200
     74 H27        -1.5760   -2.0510    6.0680 ha        1 37O      0.148000
     75 H28        -0.8610   -4.3340    6.7000 ha        1 37O      0.150000
     76 H29         3.1450   -3.4290    5.2210 ha        1 37O      0.150000
     77 H30         2.3880   -1.1670    4.5980 ha        1 37O      0.148000
     78 H31         2.6410   -5.4980    6.1330 hn        1 37O      0.312500
     79 H32         2.6640   -7.4130    7.8300 hc        1 37O      0.061700
     80 H33         2.2030   -8.0180    6.1820 hc        1 37O      0.061700
     81 H34         0.0840   -8.9850    7.1350 hc        1 37O      0.048033
     82 H35         0.5420   -8.3830    8.7740 hc        1 37O      0.048033
     83 H36         1.5620   -9.6490    7.9590 hc        1 37O      0.048033
     84 H37         6.5720   -2.3700   -3.1080 h1        1 37O      0.044200
     85 H38         8.5700   -2.5190   -4.6770 h1        1 37O      0.039200
     86 H39         6.4700    0.2310   -6.3390 h1        1 37O      0.039200
     87 H40         7.4720    1.3180   -3.6130 h1        1 37O      0.044200
@<TRIPOS>BOND
     1    1    2 ar  
     2    1    6 ar  
     3    1   48 1   
     4    2    3 ar  
     5    3    4 ar  
     6    3   11 1   
     7    4    5 ar  
     8    5    6 ar  
     9    5    7 1   
    10    6   10 1   
    11    7    8 1   
    12    7   36 1   
    13    8    9 1   
    14    8   35 2   
    15    9   10 1   
    16    9   25 1   
    17   10   49 1   
    18   10   50 1   
    19   11   12 1   
    20   11   51 1   
    21   12   13 ar  
    22   12   17 ar  
    23   13   14 ar  
    24   13   52 1   
    25   14   15 ar  
    26   14   53 1   
    27   15   16 ar  
    28   15   18 1   
    29   16   17 ar  
    30   16   54 1   
    31   17   55 1   
    32   18   19 1   
    33   18   23 1   
    34   19   20 1   
    35   19   56 1   
    36   19   84 1   
    37   20   21 1   
    38   20   57 1   
    39   20   85 1   
    40   21   22 1   
    41   21   24 1   
    42   22   23 1   
    43   22   58 1   
    44   22   86 1   
    45   23   59 1   
    46   23   87 1   
    47   24   60 1   
    48   24   61 1   
    49   24   62 1   
    50   25   26 ar  
    51   25   30 ar  
    52   26   27 ar  
    53   26   63 1   
    54   27   28 ar  
    55   27   32 1   
    56   28   29 ar  
    57   28   64 1   
    58   29   30 ar  
    59   29   31 1   
    60   30   65 1   
    61   31   33 1   
    62   32   34 1   
    63   33   66 1   
    64   33   67 1   
    65   33   68 1   
    66   34   69 1   
    67   34   70 1   
    68   34   71 1   
    69   36   37 1   
    70   36   72 1   
    71   36   73 1   
    72   37   38 ar  
    73   37   42 ar  
    74   38   39 ar  
    75   38   74 1   
    76   39   40 ar  
    77   39   75 1   
    78   40   41 ar  
    79   40   43 1   
    80   41   42 ar  
    81   41   76 1   
    82   42   77 1   
    83   43   44 1   
    84   43   78 1   
    85   44   45 1   
    86   44   47 2   
    87   45   46 1   
    88   45   79 1   
    89   45   80 1   
    90   46   81 1   
    91   46   82 1   
    92   46   83 1   
@<TRIPOS>SUBSTRUCTURE
     1 37O         1 TEMP              0 ****  ****    0 ROOT
