@<TRIPOS>MOLECULE
37O
   87    92     1     0     0
SMALL
bcc


@<TRIPOS>ATOM
      1 C01        -0.4270    0.0620    0.0750 ca        1 37O      0.494200
      2 N02         0.8900    0.2530   -0.0690 nb        1 37O     -0.746000
      3 C03         1.6230    0.3500    1.1090 ca        1 37O      0.898900
      4 N04         1.0960    0.2470    2.3870 nb        1 37O     -0.798000
      5 C05        -0.2560    0.0760    2.4850 ca        1 37O      0.628200
      6 C06        -1.0710   -0.0430    1.3170 ca        1 37O     -0.435900
      7 N07        -0.8680    0.0300    3.7480 n         1 37O     -0.445300
      8 C08        -2.2850   -0.0620    3.8680 c         1 37O      0.829500
      9 N09        -3.0900   -0.0350    2.7150 n         1 37O     -0.381000
     10 C10        -2.5290   -0.3080    1.4080 c3        1 37O      0.175300
     11 N11         3.0010    0.6440    1.0420 nh        1 37O     -0.697300
     12 C12         3.7600    0.3620   -0.1220 ca        1 37O      0.091600
     13 C13         3.5010    1.0170   -1.3420 ca        1 37O     -0.106000
     14 C14         4.3010    0.7860   -2.4520 ca        1 37O     -0.161000
     15 C15         5.4040   -0.0970   -2.3940 ca        1 37O      0.134600
     16 C16         5.6640   -0.7390   -1.1640 ca        1 37O     -0.161000
     17 C17         4.8540   -0.5240   -0.0570 ca        1 37O     -0.106000
     18 N18         6.1470   -0.3680   -3.5710 nh        1 37O     -0.635000
     19 C19         7.1040   -1.4580   -3.4930 c3        1 37O      0.185800
     20 C20         7.7140   -1.8020   -4.8680 c3        1 37O      0.165300
     21 N21         8.2570   -0.6380   -5.5540 n3        1 37O     -0.732600
     22 C22         7.2970    0.4540   -5.6230 c3        1 37O      0.165300
     23 C23         6.6830    0.8020   -4.2530 c3        1 37O      0.185800
     24 C24         8.8120   -0.9680   -6.8470 c3        1 37O      0.157100
     25 C25        -4.4960    0.1060    2.8090 ca        1 37O      0.136600
     26 C26        -5.0760    0.9120    3.8070 ca        1 37O     -0.213500
     27 C27        -6.4700    1.0660    3.8440 ca        1 37O      0.174600
     28 C28        -7.3090    0.4470    2.9120 ca        1 37O     -0.292000
     29 C29        -6.7130   -0.3510    1.9290 ca        1 37O      0.174600
     30 C30        -5.3250   -0.5360    1.8640 ca        1 37O     -0.213500
     31 O31        -7.4190   -1.0190    0.9450 os        1 37O     -0.324400
     32 O32        -6.9220    1.8850    4.8610 os        1 37O     -0.324400
     33 C33        -8.8360   -0.9150    1.0040 c3        1 37O      0.114200
     34 C34        -8.3320    2.0270    4.9790 c3        1 37O      0.114200
     35 O35        -2.7820   -0.1290    5.0130 o         1 37O     -0.636500
     36 C36        -0.0790   -0.0740    4.9670 c3        1 37O      0.152300
     37 C37         0.3660   -1.4660    5.3020 ca        1 37O     -0.150300
     38 C38        -0.5280   -2.3650    5.8890 ca        1 37O     -0.080500
     39 C39        -0.1270   -3.6490    6.2430 ca        1 37O     -0.181000
     40 C40         1.2030   -4.0640    6.0120 ca        1 37O      0.081600
     41 C41         2.1030   -3.1470    5.4130 ca        1 37O     -0.181000
     42 C42         1.6810   -1.8710    5.0640 ca        1 37O     -0.080500
     43 N43         1.6810   -5.3400    6.3440 n         1 37O     -0.476100
     44 C44         0.9820   -6.3910    6.9290 c         1 37O      0.663100
     45 C45         1.7920   -7.6580    7.1650 c3        1 37O     -0.152400
     46 C46         0.9460   -8.7310    7.8000 c3        1 37O     -0.087100
     47 O47        -0.2180   -6.3150    7.2410 o         1 37O     -0.581100
     48 H1         -1.0020   -0.0190   -0.8670 h4        1 37O      0.030100
     49 H2         -3.0800    0.3220    0.6470 h1        1 37O      0.057200
     50 H3         -2.7140   -1.3960    1.1490 h1        1 37O      0.057200
     51 H4          3.5000    0.4890    1.8970 hn        1 37O      0.434800
     52 H5          2.6540    1.7160   -1.4310 ha        1 37O      0.142000
     53 H6          4.0500    1.3000   -3.3930 ha        1 37O      0.137500
     54 H7          6.5150   -1.4290   -1.0560 ha        1 37O      0.137500
     55 H8          5.0880   -1.0520    0.8810 ha        1 37O      0.142000
     56 H9          7.9440   -1.2240   -2.7760 h1        1 37O      0.044200
     57 H10         8.5600   -2.5230   -4.6930 h1        1 37O      0.039200
     58 H11         6.4610    0.2310   -6.3490 h1        1 37O      0.039200
     59 H12         5.8470    1.5340   -4.4310 h1        1 37O      0.044200
     60 H13         9.6020   -1.7530   -6.7100 h1        1 37O      0.033367
     61 H14         8.0480   -1.3550   -7.5770 h1        1 37O      0.033367
     62 H15         9.2870   -0.0490   -7.2800 h1        1 37O      0.033367
     63 H16        -4.4640    1.4070    4.5780 ha        1 37O      0.164500
     64 H17        -8.3970    0.5800    2.9510 ha        1 37O      0.144000
     65 H18        -4.9220   -1.1880    1.0770 ha        1 37O      0.164500
     66 H19        -9.1780   -1.5490    0.1470 h1        1 37O      0.044867
     67 H20        -9.2230   -1.3190    1.9710 h1        1 37O      0.044867
     68 H21        -9.1600    0.1450    0.8630 h1        1 37O      0.044867
     69 H22        -8.8170    1.0360    5.1570 h1        1 37O      0.044867
     70 H23        -8.7570    2.5140    4.0690 h1        1 37O      0.044867
     71 H24        -8.4510    2.6910    5.8730 h1        1 37O      0.044867
     72 H25        -0.7140    0.3170    5.8180 h1        1 37O      0.084200
     73 H26         0.8180    0.6020    4.8690 h1        1 37O      0.084200
     74 H27        -1.5700   -2.0490    6.0730 ha        1 37O      0.148000
     75 H28        -0.8590   -4.3320    6.7050 ha        1 37O      0.150000
     76 H29         3.1470   -3.4360    5.2170 ha        1 37O      0.150000
     77 H30         2.3920   -1.1730    4.5940 ha        1 37O      0.148000
     78 H31         2.6400   -5.5040    6.1310 hn        1 37O      0.312500
     79 H32         2.6640   -7.4170    7.8300 hc        1 37O      0.061700
     80 H33         2.1970   -8.0230    6.1840 hc        1 37O      0.061700
     81 H34         1.5580   -9.6500    7.9640 hc        1 37O      0.048033
     82 H35         0.5430   -8.3820    8.7810 hc        1 37O      0.048033
     83 H36         0.0790   -8.9840    7.1440 hc        1 37O      0.048033
     84 H37         6.5650   -2.3740   -3.1220 h1        1 37O      0.044200
     85 H38         6.9320   -2.3280   -5.4890 h1        1 37O      0.039200
     86 H39         7.8420    1.3670   -5.9930 h1        1 37O      0.039200
     87 H40         7.4680    1.3140   -3.6230 h1        1 37O      0.044200
@<TRIPOS>BOND
     1    1    2 ar  
     2    1    6 ar  
     3    1   48 1   
     4    2    3 ar  
     5    3    4 ar  
     6    3   11 1   
     7    4    5 ar  
     8    5    6 ar  
     9    5    7 1   
    10    6   10 1   
    11    7    8 1   
    12    7   36 1   
    13    8    9 1   
    14    8   35 2   
    15    9   10 1   
    16    9   25 1   
    17   10   49 1   
    18   10   50 1   
    19   11   12 1   
    20   11   51 1   
    21   12   13 ar  
    22   12   17 ar  
    23   13   14 ar  
    24   13   52 1   
    25   14   15 ar  
    26   14   53 1   
    27   15   16 ar  
    28   15   18 1   
    29   16   17 ar  
    30   16   54 1   
    31   17   55 1   
    32   18   19 1   
    33   18   23 1   
    34   19   20 1   
    35   19   56 1   
    36   19   84 1   
    37   20   21 1   
    38   20   57 1   
    39   20   85 1   
    40   21   22 1   
    41   21   24 1   
    42   22   23 1   
    43   22   58 1   
    44   22   86 1   
    45   23   59 1   
    46   23   87 1   
    47   24   60 1   
    48   24   61 1   
    49   24   62 1   
    50   25   26 ar  
    51   25   30 ar  
    52   26   27 ar  
    53   26   63 1   
    54   27   28 ar  
    55   27   32 1   
    56   28   29 ar  
    57   28   64 1   
    58   29   30 ar  
    59   29   31 1   
    60   30   65 1   
    61   31   33 1   
    62   32   34 1   
    63   33   66 1   
    64   33   67 1   
    65   33   68 1   
    66   34   69 1   
    67   34   70 1   
    68   34   71 1   
    69   36   37 1   
    70   36   72 1   
    71   36   73 1   
    72   37   38 ar  
    73   37   42 ar  
    74   38   39 ar  
    75   38   74 1   
    76   39   40 ar  
    77   39   75 1   
    78   40   41 ar  
    79   40   43 1   
    80   41   42 ar  
    81   41   76 1   
    82   42   77 1   
    83   43   44 1   
    84   43   78 1   
    85   44   45 1   
    86   44   47 2   
    87   45   46 1   
    88   45   79 1   
    89   45   80 1   
    90   46   81 1   
    91   46   82 1   
    92   46   83 1   
@<TRIPOS>SUBSTRUCTURE
     1 37O         1 TEMP              0 ****  ****    0 ROOT
