@<TRIPOS>MOLECULE
37O
   87    92     1     0     0
SMALL
bcc


@<TRIPOS>ATOM
      1 C01        -0.4290    0.0690    0.0790 ca        1 37O      0.494200
      2 N02         0.8880    0.2610   -0.0640 nb        1 37O     -0.746000
      3 C03         1.6200    0.3560    1.1140 ca        1 37O      0.898900
      4 N04         1.0920    0.2510    2.3920 nb        1 37O     -0.797000
      5 C05        -0.2600    0.0780    2.4890 ca        1 37O      0.628200
      6 C06        -1.0740   -0.0380    1.3200 ca        1 37O     -0.435900
      7 N07        -0.8720    0.0290    3.7510 n         1 37O     -0.445300
      8 C08        -2.2890   -0.0660    3.8700 c         1 37O      0.829500
      9 N09        -3.0940   -0.0360    2.7170 n         1 37O     -0.381000
     10 C10        -2.5320   -0.3050    1.4090 c3        1 37O      0.175300
     11 N11         2.9980    0.6510    1.0480 nh        1 37O     -0.697300
     12 C12         3.7570    0.3700   -0.1150 ca        1 37O      0.091600
     13 C13         3.5000    1.0250   -1.3350 ca        1 37O     -0.106000
     14 C14         4.3010    0.7940   -2.4450 ca        1 37O     -0.161000
     15 C15         5.4040   -0.0900   -2.3860 ca        1 37O      0.134600
     16 C16         5.6630   -0.7320   -1.1550 ca        1 37O     -0.161000
     17 C17         4.8510   -0.5160   -0.0490 ca        1 37O     -0.106000
     18 N18         6.1470   -0.3610   -3.5620 nh        1 37O     -0.635000
     19 C19         7.1040   -1.4520   -3.4840 c3        1 37O      0.185800
     20 C20         7.7140   -1.7960   -4.8580 c3        1 37O      0.165300
     21 N21         8.2570   -0.6330   -5.5450 n3        1 37O     -0.732600
     22 C22         7.2980    0.4600   -5.6140 c3        1 37O      0.165300
     23 C23         6.6830    0.8080   -4.2440 c3        1 37O      0.185800
     24 C24         8.8130   -0.9640   -6.8370 c3        1 37O      0.157100
     25 C25        -4.5000    0.1040    2.8110 ca        1 37O      0.136600
     26 C26        -5.0810    0.9060    3.8120 ca        1 37O     -0.213500
     27 C27        -6.4750    1.0580    3.8490 ca        1 37O      0.174600
     28 C28        -7.3130    0.4420    2.9130 ca        1 37O     -0.292000
     29 C29        -6.7160   -0.3520    1.9280 ca        1 37O      0.174600
     30 C30        -5.3280   -0.5350    1.8630 ca        1 37O     -0.213500
     31 O31        -7.4210   -1.0160    0.9410 os        1 37O     -0.324400
     32 O32        -6.9280    1.8730    4.8680 os        1 37O     -0.324400
     33 C33        -8.8380   -0.9130    0.9990 c3        1 37O      0.114200
     34 C34        -8.3380    2.0140    4.9860 c3        1 37O      0.114200
     35 O35        -2.7870   -0.1370    5.0150 o         1 37O     -0.636500
     36 C36        -0.0830   -0.0770    4.9710 c3        1 37O      0.152300
     37 C37         0.3650   -1.4690    5.3010 ca        1 37O     -0.150300
     38 C38        -0.5280   -2.3730    5.8830 ca        1 37O     -0.080500
     39 C39        -0.1230   -3.6570    6.2330 ca        1 37O     -0.181000
     40 C40         1.2080   -4.0680    6.0020 ca        1 37O      0.081600
     41 C41         2.1070   -3.1460    5.4090 ca        1 37O     -0.181000
     42 C42         1.6820   -1.8690    5.0640 ca        1 37O     -0.080500
     43 N43         1.6900   -5.3440    6.3310 n         1 37O     -0.476100
     44 C44         0.9910   -6.4000    6.9070 c         1 37O      0.663100
     45 C45         1.8040   -7.6660    7.1400 c3        1 37O     -0.152400
     46 C46         0.9590   -8.7450    7.7650 c3        1 37O     -0.087100
     47 O47        -0.2100   -6.3290    7.2160 o         1 37O     -0.581100
     48 H1         -1.0040   -0.0100   -0.8640 h4        1 37O      0.030100
     49 H2         -3.0820    0.3270    0.6510 h1        1 37O      0.057200
     50 H3         -2.7160   -1.3920    1.1470 h1        1 37O      0.057200
     51 H4          3.4960    0.4960    1.9030 hn        1 37O      0.434800
     52 H5          2.6530    1.7240   -1.4250 ha        1 37O      0.142000
     53 H6          4.0500    1.3080   -3.3860 ha        1 37O      0.137500
     54 H7          6.5130   -1.4220   -1.0470 ha        1 37O      0.137500
     55 H8          5.0860   -1.0440    0.8890 ha        1 37O      0.142000
     56 H9          6.5640   -2.3680   -3.1120 h1        1 37O      0.044200
     57 H10         8.5600   -2.5180   -4.6830 h1        1 37O      0.039200
     58 H11         7.8430    1.3730   -5.9840 h1        1 37O      0.039200
     59 H12         7.4680    1.3200   -3.6150 h1        1 37O      0.044200
     60 H13         9.6020   -1.7480   -6.7000 h1        1 37O      0.033367
     61 H14         9.2870   -0.0450   -7.2710 h1        1 37O      0.033367
     62 H15         8.0490   -1.3500   -7.5670 h1        1 37O      0.033367
     63 H16        -4.4700    1.3980    4.5840 ha        1 37O      0.164500
     64 H17        -8.4010    0.5740    2.9520 ha        1 37O      0.144000
     65 H18        -4.9230   -1.1850    1.0740 ha        1 37O      0.164500
     66 H19        -9.1790   -1.5440    0.1390 h1        1 37O      0.044867
     67 H20        -9.1620    0.1470    0.8610 h1        1 37O      0.044867
     68 H21        -9.2260   -1.3200    1.9640 h1        1 37O      0.044867
     69 H22        -8.7630    2.5040    4.0770 h1        1 37O      0.044867
     70 H23        -8.4580    2.6740    5.8830 h1        1 37O      0.044867
     71 H24        -8.8230    1.0220    5.1600 h1        1 37O      0.044867
     72 H25         0.8120    0.6020    4.8750 h1        1 37O      0.084200
     73 H26        -0.7200    0.3100    5.8220 h1        1 37O      0.084200
     74 H27        -1.5710   -2.0600    6.0660 ha        1 37O      0.148000
     75 H28        -0.8540   -4.3440    6.6910 ha        1 37O      0.150000
     76 H29         3.1510   -3.4310    5.2130 ha        1 37O      0.150000
     77 H30         2.3920   -1.1670    4.5980 ha        1 37O      0.148000
     78 H31         2.6490   -5.5040    6.1190 hn        1 37O      0.312500
     79 H32         2.6730   -7.4250    7.8090 hc        1 37O      0.061700
     80 H33         2.2140   -8.0230    6.1580 hc        1 37O      0.061700
     81 H34         0.5510   -8.4020    8.7470 hc        1 37O      0.048033
     82 H35         1.5740   -9.6620    7.9270 hc        1 37O      0.048033
     83 H36         0.0950   -8.9970    7.1040 hc        1 37O      0.048033
     84 H37         7.9440   -1.2180   -2.7670 h1        1 37O      0.044200
     85 H38         6.9320   -2.3220   -5.4800 h1        1 37O      0.039200
     86 H39         6.4620    0.2360   -6.3400 h1        1 37O      0.039200
     87 H40         5.8480    1.5400   -4.4230 h1        1 37O      0.044200
@<TRIPOS>BOND
     1    1    2 ar  
     2    1    6 ar  
     3    1   48 1   
     4    2    3 ar  
     5    3    4 ar  
     6    3   11 1   
     7    4    5 ar  
     8    5    6 ar  
     9    5    7 1   
    10    6   10 1   
    11    7    8 1   
    12    7   36 1   
    13    8    9 1   
    14    8   35 2   
    15    9   10 1   
    16    9   25 1   
    17   10   49 1   
    18   10   50 1   
    19   11   12 1   
    20   11   51 1   
    21   12   13 ar  
    22   12   17 ar  
    23   13   14 ar  
    24   13   52 1   
    25   14   15 ar  
    26   14   53 1   
    27   15   16 ar  
    28   15   18 1   
    29   16   17 ar  
    30   16   54 1   
    31   17   55 1   
    32   18   19 1   
    33   18   23 1   
    34   19   20 1   
    35   19   56 1   
    36   19   84 1   
    37   20   21 1   
    38   20   57 1   
    39   20   85 1   
    40   21   22 1   
    41   21   24 1   
    42   22   23 1   
    43   22   58 1   
    44   22   86 1   
    45   23   59 1   
    46   23   87 1   
    47   24   60 1   
    48   24   61 1   
    49   24   62 1   
    50   25   26 ar  
    51   25   30 ar  
    52   26   27 ar  
    53   26   63 1   
    54   27   28 ar  
    55   27   32 1   
    56   28   29 ar  
    57   28   64 1   
    58   29   30 ar  
    59   29   31 1   
    60   30   65 1   
    61   31   33 1   
    62   32   34 1   
    63   33   66 1   
    64   33   67 1   
    65   33   68 1   
    66   34   69 1   
    67   34   70 1   
    68   34   71 1   
    69   36   37 1   
    70   36   72 1   
    71   36   73 1   
    72   37   38 ar  
    73   37   42 ar  
    74   38   39 ar  
    75   38   74 1   
    76   39   40 ar  
    77   39   75 1   
    78   40   41 ar  
    79   40   43 1   
    80   41   42 ar  
    81   41   76 1   
    82   42   77 1   
    83   43   44 1   
    84   43   78 1   
    85   44   45 1   
    86   44   47 2   
    87   45   46 1   
    88   45   79 1   
    89   45   80 1   
    90   46   81 1   
    91   46   82 1   
    92   46   83 1   
@<TRIPOS>SUBSTRUCTURE
     1 37O         1 TEMP              0 ****  ****    0 ROOT
