@<TRIPOS>MOLECULE
37P
   73    78     1     0     0
SMALL
bcc


@<TRIPOS>ATOM
      1 O2S         1.5220    2.8960   -3.7700 o         1 37P     -0.559800
      2 S           2.6830    2.1930   -3.6780 s6        1 37P      1.685400
      3 O1S         3.9950    2.5570   -3.6000 o         1 37P     -0.559800
      4 O5'         2.4580    1.2810   -2.3180 os        1 37P     -0.577500
      5 C5'         3.4650    0.8170   -1.4430 c3        1 37P      0.187400
      6 C4'         3.7640   -0.6500   -1.7440 c3        1 37P      0.097100
      7 C3'         4.8350   -1.2390   -0.8050 c3        1 37P      0.082100
      8 O3'         4.2560   -2.3530   -0.1510 oh        1 37P     -0.601800
      9 C2'         5.9790   -1.7130   -1.7370 c3        1 37P      0.098100
     10 O2'         6.5530   -2.9180   -1.3270 oh        1 37P     -0.554800
     11 C1'         5.3460   -1.6960   -3.1670 c3        1 37P      0.231800
     12 N9A         4.8190   -2.9360   -3.6520 na        1 37P     -0.303000
     13 C4A         4.8470   -3.3570   -4.9970 ca        1 37P      0.461800
     14 N3A         5.4120   -2.7830   -6.0980 nb        1 37P     -0.766000
     15 C2A         5.2500   -3.5370   -7.2160 ca        1 37P      0.694900
     16 N1A         4.6150   -4.7220   -7.3870 nb        1 37P     -0.784000
     17 C6A         4.0190   -5.2980   -6.2820 ca        1 37P      0.769200
     18 N6A         3.3290   -6.4710   -6.3860 nv        1 37P     -0.939500
     19 C5A         4.1110   -4.6130   -5.0220 ca        1 37P     -0.240200
     20 N7A         3.6210   -4.9100   -3.7390 nc        1 37P     -0.515100
     21 C8A         4.0330   -3.9050   -2.9620 cd        1 37P      0.393700
     22 O4'         4.2930   -0.7090   -3.0790 os        1 37P     -0.499600
     23 N45         2.6040    0.7990   -4.9180 ny        1 37P     -0.617700
     24 C44         1.2620    0.2590   -5.2950 c         1 37P      0.563100
     25 O46         0.4070    0.2560   -4.4200 o         1 37P     -0.418100
     26 C43         1.0980   -0.2470   -6.7020 c3        1 37P     -0.154400
     27 C42         0.2730    0.7080   -7.5450 c3        1 37P     -0.084400
     28 C16         1.0040    1.9880   -7.9010 c3        1 37P     -0.088400
     29 C15         0.5170    3.1700   -7.0800 c3        1 37P     -0.044200
     30 C13         1.4290    4.3390   -7.2150 cc        1 37P     -0.197400
     31 C12         2.6650    4.3200   -6.4160 c         1 37P      0.679500
     32 O16         2.9460    3.3370   -5.6740 o         1 37P     -0.795100
     33 C17         3.5530    5.4550   -6.5130 cc        1 37P     -0.315200
     34 C8          3.2320    6.5020   -7.3250 cd        1 37P      0.265400
     35 C9          2.0030    6.5500   -8.1320 cd        1 37P      0.289800
     36 C14         1.1240    5.3890   -8.0110 cd        1 37P     -0.121800
     37 O7          4.1240    7.5560   -7.3720 os        1 37P     -0.355800
     38 C6          3.7920    8.6200   -8.1970 ca        1 37P      0.303700
     39 C11         2.5900    8.6230   -8.9620 ca        1 37P      0.173300
     40 N10         1.6950    7.5630   -8.9150 nc        1 37P     -0.507000
     41 C1          4.7080    9.6730   -8.2250 ca        1 37P     -0.252300
     42 C2          4.4090   10.7690   -9.0480 ca        1 37P      0.211100
     43 O15         5.3220   11.7820   -9.0550 oh        1 37P     -0.467100
     44 C3          3.2240   10.8060   -9.8210 ca        1 37P     -0.235000
     45 C4          2.3310    9.7560   -9.7810 ca        1 37P     -0.053300
     46 H1          3.0210    0.9090   -0.4130 h1        1 37P      0.089200
     47 H2          4.3890    1.4490   -1.5390 h1        1 37P      0.089200
     48 H3          2.8210   -1.2640   -1.7120 h1        1 37P      0.103700
     49 H4          5.2020   -0.4840   -0.0630 h1        1 37P      0.078700
     50 H5          4.8170   -2.5620    0.6080 ho        1 37P      0.436000
     51 H6          6.8320   -0.9770   -1.7300 h1        1 37P      0.114700
     52 H7          5.8600   -3.5920   -1.2620 ho        1 37P      0.421000
     53 H8          6.0690   -1.2790   -3.9320 h2        1 37P      0.134700
     54 H9          5.7140   -3.1230   -8.1390 h5        1 37P      0.059100
     55 H10         3.3380   -6.9860   -7.2330 hn        1 37P      0.456300
     56 H11         3.0050   -6.9080   -5.5570 hn        1 37P      0.456300
     57 H12         3.8090   -3.7890   -1.8890 h5        1 37P      0.092800
     58 H13         3.0590    1.1360   -5.7760 hn        1 37P      0.482800
     59 H14         0.5550   -1.2320   -6.6240 hc        1 37P      0.099200
     60 H15         2.0880   -0.4420   -7.1940 hc        1 37P      0.099200
     61 H16        -0.6900    0.9400   -7.0160 hc        1 37P      0.079200
     62 H17         0.0040    0.1610   -8.4910 hc        1 37P      0.079200
     63 H18         2.1100    1.8610   -7.7540 hc        1 37P      0.052700
     64 H19         0.8470    2.2120   -8.9900 hc        1 37P      0.052700
     65 H20         0.4610    2.8840   -5.9920 hc        1 37P      0.068200
     66 H21        -0.5220    3.4460   -7.4050 hc        1 37P      0.068200
     67 H22         4.4790    5.4470   -5.9180 ha        1 37P      0.186000
     68 H24         0.1880    5.4050   -8.6000 ha        1 37P      0.171000
     69 H26         5.6300    9.6480   -7.6260 ha        1 37P      0.189000
     70 H27         5.0120   12.4810   -9.6530 ho        1 37P      0.443000
     71 H28         3.0190   11.6820  -10.4570 ha        1 37P      0.161000
     72 H29         1.4070    9.7880  -10.3840 ha        1 37P      0.171000
     73 H452        3.1570    0.0040   -4.5740 hn        1 37P      0.482800
@<TRIPOS>BOND
     1    1    2 2   
     2    2    3 2   
     3    2    4 1   
     4    2   23 1   
     5    4    5 1   
     6    5    6 1   
     7    5   46 1   
     8    5   47 1   
     9    6    7 1   
    10    6   22 1   
    11    6   48 1   
    12    7    8 1   
    13    7    9 1   
    14    7   49 1   
    15    8   50 1   
    16    9   10 1   
    17    9   11 1   
    18    9   51 1   
    19   10   52 1   
    20   11   12 1   
    21   11   22 1   
    22   11   53 1   
    23   12   13 1   
    24   12   21 1   
    25   13   14 ar  
    26   13   19 ar  
    27   14   15 ar  
    28   15   16 ar  
    29   15   54 1   
    30   16   17 ar  
    31   17   18 1   
    32   17   19 ar  
    33   18   55 1   
    34   18   56 1   
    35   19   20 1   
    36   20   21 2   
    37   21   57 1   
    38   23   24 1   
    39   23   58 1   
    40   23   73 1   
    41   24   25 2   
    42   24   26 1   
    43   26   27 1   
    44   26   59 1   
    45   26   60 1   
    46   27   28 1   
    47   27   61 1   
    48   27   62 1   
    49   28   29 1   
    50   28   63 1   
    51   28   64 1   
    52   29   30 1   
    53   29   65 1   
    54   29   66 1   
    55   30   31 1   
    56   30   36 2   
    57   31   32 2   
    58   31   33 1   
    59   33   34 2   
    60   33   67 1   
    61   34   35 1   
    62   34   37 1   
    63   35   36 1   
    64   35   40 2   
    65   36   68 1   
    66   37   38 1   
    67   38   39 ar  
    68   38   41 ar  
    69   39   40 1   
    70   39   45 ar  
    71   41   42 ar  
    72   41   69 1   
    73   42   43 1   
    74   42   44 ar  
    75   43   70 1   
    76   44   45 ar  
    77   44   71 1   
    78   45   72 1   
@<TRIPOS>SUBSTRUCTURE
     1 37P         1 TEMP              0 ****  ****    0 ROOT
