@<TRIPOS>MOLECULE
37P
   73    78     1     0     0
SMALL
bcc


@<TRIPOS>ATOM
      1 O2S         1.5630    2.8840   -3.7250 o         1 37P     -0.559800
      2 S           2.7280    2.1840   -3.6630 s6        1 37P      1.685400
      3 O1S         4.0400    2.5530   -3.6120 o         1 37P     -0.559800
      4 O5'         2.5370    1.2650   -2.3030 os        1 37P     -0.577500
      5 C5'         3.5650    0.8000   -1.4530 c3        1 37P      0.187400
      6 C4'         3.8600   -0.6660   -1.7670 c3        1 37P      0.097100
      7 C3'         4.9520   -1.2570   -0.8550 c3        1 37P      0.082100
      8 O3'         4.3900   -2.3750   -0.1930 oh        1 37P     -0.601800
      9 C2'         6.0760   -1.7240   -1.8140 c3        1 37P      0.098100
     10 O2'         6.6600   -2.9310   -1.4220 oh        1 37P     -0.554800
     11 C1'         5.4120   -1.7020   -3.2300 c3        1 37P      0.231800
     12 N9A         4.8770   -2.9410   -3.7090 na        1 37P     -0.303000
     13 C4A         4.8750   -3.3560   -5.0560 ca        1 37P      0.461800
     14 N3A         5.4150   -2.7770   -6.1670 nb        1 37P     -0.766000
     15 C2A         5.2290   -3.5260   -7.2840 ca        1 37P      0.694900
     16 N1A         4.5920   -4.7100   -7.4460 nb        1 37P     -0.784000
     17 C6A         4.0220   -5.2920   -6.3310 ca        1 37P      0.769200
     18 N6A         3.3300   -6.4650   -6.4250 nh        1 37P     -0.939500
     19 C5A         4.1400   -4.6120   -5.0710 ca        1 37P     -0.240200
     20 N7A         3.6790   -4.9160   -3.7790 nc        1 37P     -0.515100
     21 C8A         4.1070   -3.9140   -3.0060 cd        1 37P      0.393700
     22 O4'         4.3590   -0.7170   -3.1140 os        1 37P     -0.499600
     23 N45         2.6270    0.7960   -4.9080 n4        1 37P     -0.618700
     24 C44         1.2780    0.2520   -5.2560 c         1 37P      0.563100
     25 O46         0.4440    0.2420   -4.3620 o         1 37P     -0.418100
     26 C43         1.0850   -0.2480   -6.6610 c3        1 37P     -0.154400
     27 C42         0.2370    0.7060   -7.4820 c3        1 37P     -0.084400
     28 C16         0.9540    1.9900   -7.8480 c3        1 37P     -0.088400
     29 C15         0.4810    3.1670   -7.0110 c3        1 37P     -0.044200
     30 C13         1.3850    4.3410   -7.1600 cc        1 37P     -0.197400
     31 C12         2.6390    4.3240   -6.3890 c         1 37P      0.679500
     32 O16         2.9410    3.3390   -5.6590 o         1 37P     -0.795100
     33 C17         3.5190    5.4640   -6.5010 cc        1 37P     -0.315200
     34 C8          3.1760    6.5120   -7.3010 cd        1 37P      0.265400
     35 C9          1.9290    6.5580   -8.0800 cd        1 37P      0.289800
     36 C14         1.0580    5.3930   -7.9450 cd        1 37P     -0.121800
     37 O7          4.0620    7.5700   -7.3640 os        1 37P     -0.355800
     38 C6          3.7070    8.6360   -8.1770 ca        1 37P      0.303700
     39 C11         2.4880    8.6370   -8.9150 ca        1 37P      0.173300
     40 N10         1.5990    7.5730   -8.8530 nc        1 37P     -0.507000
     41 C1          4.6170    9.6940   -8.2220 ca        1 37P     -0.252300
     42 C2          4.2950   10.7910   -9.0330 ca        1 37P      0.211100
     43 O15         5.2030   11.8080   -9.0560 oh        1 37P     -0.467100
     44 C3          3.0930   10.8270   -9.7790 ca        1 37P     -0.235000
     45 C4          2.2050    9.7720   -9.7230 ca        1 37P     -0.053300
     46 H1          3.1450    0.8860   -0.4120 h1        1 37P      0.089200
     47 H2          4.4850    1.4340   -1.5680 h1        1 37P      0.089200
     48 H3          2.9190   -1.2810   -1.7170 h1        1 37P      0.103700
     49 H4          5.3350   -0.5040   -0.1180 h1        1 37P      0.078700
     50 H5          4.9680   -2.5870    0.5520 ho        1 37P      0.436000
     51 H6          6.9280   -0.9870   -1.8230 h1        1 37P      0.114700
     52 H7          5.9700   -3.6070   -1.3450 ho        1 37P      0.421000
     53 H8          6.1170   -1.2810   -4.0080 h2        1 37P      0.134700
     54 H9          5.6730   -3.1060   -8.2150 h5        1 37P      0.059100
     55 H10         3.3220   -6.9770   -7.2750 hn        1 37P      0.456300
     56 H11         3.0250   -6.9070   -5.5910 hn        1 37P      0.456300
     57 H12         3.9060   -3.8030   -1.9280 h5        1 37P      0.092800
     58 H13         3.1900    0.0020   -4.5800 hn        1 37P      0.482800
     59 H14         2.0640   -0.4380   -7.1760 hc        1 37P      0.099200
     60 H15         0.5480   -1.2360   -6.5750 hc        1 37P      0.099200
     61 H16        -0.0500    0.1620   -8.4230 hc        1 37P      0.079200
     62 H17        -0.7150    0.9320   -6.9300 hc        1 37P      0.079200
     63 H18         0.7720    2.2190   -8.9320 hc        1 37P      0.052700
     64 H19         2.0640    1.8680   -7.7270 hc        1 37P      0.052700
     65 H20         0.4520    2.8760   -5.9220 hc        1 37P      0.068200
     66 H21        -0.5660    3.4400   -7.3090 hc        1 37P      0.068200
     67 H22         4.4590    5.4570   -5.9280 ha        1 37P      0.186000
     68 H24         0.1090    5.4070   -8.5120 ha        1 37P      0.171000
     69 H26         5.5520    9.6700   -7.6430 ha        1 37P      0.189000
     70 H27         4.8760   12.5090   -9.6440 ho        1 37P      0.443000
     71 H28         2.8700   11.7040  -10.4060 ha        1 37P      0.161000
     72 H29         1.2680    9.8020  -10.3060 ha        1 37P      0.171000
     73 H452        3.0600    1.1390   -5.7730 hn        1 37P      0.482800
@<TRIPOS>BOND
     1    1    2 2   
     2    2    3 2   
     3    2    4 1   
     4    2   23 1   
     5    4    5 1   
     6    5    6 1   
     7    5   46 1   
     8    5   47 1   
     9    6    7 1   
    10    6   22 1   
    11    6   48 1   
    12    7    8 1   
    13    7    9 1   
    14    7   49 1   
    15    8   50 1   
    16    9   10 1   
    17    9   11 1   
    18    9   51 1   
    19   10   52 1   
    20   11   12 1   
    21   11   22 1   
    22   11   53 1   
    23   12   13 1   
    24   12   21 1   
    25   13   14 ar  
    26   13   19 ar  
    27   14   15 ar  
    28   15   16 ar  
    29   15   54 1   
    30   16   17 ar  
    31   17   18 1   
    32   17   19 ar  
    33   18   55 1   
    34   18   56 1   
    35   19   20 1   
    36   20   21 2   
    37   21   57 1   
    38   23   24 1   
    39   23   58 1   
    40   23   73 1   
    41   24   25 2   
    42   24   26 1   
    43   26   27 1   
    44   26   59 1   
    45   26   60 1   
    46   27   28 1   
    47   27   61 1   
    48   27   62 1   
    49   28   29 1   
    50   28   63 1   
    51   28   64 1   
    52   29   30 1   
    53   29   65 1   
    54   29   66 1   
    55   30   31 1   
    56   30   36 2   
    57   31   32 2   
    58   31   33 1   
    59   33   34 2   
    60   33   67 1   
    61   34   35 1   
    62   34   37 1   
    63   35   36 1   
    64   35   40 2   
    65   36   68 1   
    66   37   38 1   
    67   38   39 ar  
    68   38   41 ar  
    69   39   40 1   
    70   39   45 ar  
    71   41   42 ar  
    72   41   69 1   
    73   42   43 1   
    74   42   44 ar  
    75   43   70 1   
    76   44   45 ar  
    77   44   71 1   
    78   45   72 1   
@<TRIPOS>SUBSTRUCTURE
     1 37P         1 TEMP              0 ****  ****    0 ROOT
