@<TRIPOS>MOLECULE
37P
   72    77     1     0     0
SMALL
bcc


@<TRIPOS>ATOM
      1 O2S         1.8930   -0.7020    1.6950 o         1 37P     -0.628300
      2 S           3.0140   -0.3360    0.9840 s6        1 37P      1.703100
      3 O1S         4.2340   -0.1310    1.6150 o         1 37P     -0.628300
      4 O5'         3.2760   -1.6560   -0.0130 os        1 37P     -0.557500
      5 C5'         4.3810   -1.7780   -0.8720 c3        1 37P      0.181400
      6 C4'         3.9070   -1.5820   -2.3150 c3        1 37P      0.069100
      7 C3'         2.9410   -2.6900   -2.7830 c3        1 37P      0.087100
      8 O3'         1.7560   -2.1280   -3.3130 oh        1 37P     -0.621800
      9 C2'         3.6830   -3.3960   -3.9410 c3        1 37P      0.127100
     10 O2'         2.8610   -3.8330   -4.9820 oh        1 37P     -0.559800
     11 C1'         4.8060   -2.3790   -4.3450 c3        1 37P      0.215800
     12 N9A         4.4810   -1.5100   -5.4450 na        1 37P     -0.280000
     13 C4A         5.3560   -1.1310   -6.4790 ca        1 37P      0.473800
     14 N3A         6.6190   -1.5530   -6.7840 nb        1 37P     -0.735000
     15 C2A         7.1210   -0.9420   -7.8830 ca        1 37P      0.688900
     16 N1A         6.5650   -0.0080   -8.6990 nb        1 37P     -0.794000
     17 C6A         5.2840    0.4070   -8.4120 ca        1 37P      0.753200
     18 N6A         4.6220    1.2820   -9.2360 nh        1 37P     -0.937500
     19 C5A         4.6280   -0.1350   -7.2570 ca        1 37P     -0.235200
     20 N7A         3.3680    0.0950   -6.6820 nc        1 37P     -0.556100
     21 C8A         3.3170   -0.7140   -5.6160 cd        1 37P      0.400700
     22 O4'         5.0720   -1.6220   -3.1490 os        1 37P     -0.411600
     23 N45         2.7740    0.9250   -0.0360 n         1 37P     -0.709300
     24 C44         1.8510    1.0280   -1.0870 c         1 37P      0.695100
     25 O46         1.1250    0.0520   -1.3410 o         1 37P     -0.578100
     26 C43         1.8080    2.3220   -1.8680 c3        1 37P     -0.150400
     27 C42         1.1210    2.1210   -3.2030 c3        1 37P     -0.074400
     28 C16         1.4020    3.2820   -4.1320 c3        1 37P     -0.078400
     29 C15         0.6780    3.0940   -5.4540 c3        1 37P     -0.041200
     30 C13         1.1610    4.0650   -6.4760 cc        1 37P     -0.148400
     31 C12         0.6740    5.4620   -6.3610 c         1 37P      0.569500
     32 O16        -0.0820    5.8240   -5.4480 o         1 37P     -0.524100
     33 C17         1.1390    6.4000   -7.3880 cc        1 37P     -0.266200
     34 C8          1.9790    5.9920   -8.3650 cd        1 37P      0.197400
     35 C9          2.4860    4.6100   -8.4820 cd        1 37P      0.365800
     36 C14         1.9970    3.6800   -7.4600 cd        1 37P     -0.194800
     37 O7          2.3730    6.9480   -9.2970 os        1 37P     -0.378800
     38 C6          3.2490    6.5250  -10.2860 ca        1 37P      0.293700
     39 C11         3.7170    5.1860  -10.3520 ca        1 37P      0.194300
     40 N10         3.3130    4.2210   -9.4210 nc        1 37P     -0.598000
     41 C1          3.6360    7.5030  -11.2070 ca        1 37P     -0.243300
     42 C2          4.5210    7.1220  -12.2230 ca        1 37P      0.177100
     43 O15         4.8830    8.1030  -13.1100 oh        1 37P     -0.482100
     44 C3          5.0060    5.8020  -12.3180 ca        1 37P     -0.236000
     45 C4          4.6100    4.8480  -11.3960 ca        1 37P     -0.078300
     46 H1          5.1790   -1.0310   -0.6130 h1        1 37P      0.070700
     47 H2          4.7830   -2.8170   -0.7250 h1        1 37P      0.070700
     48 H3          3.4210   -0.5750   -2.4400 h1        1 37P      0.056700
     49 H4          2.7010   -3.4000   -1.9480 h1        1 37P      0.087700
     50 H5          1.2190   -1.8280   -2.5650 ho        1 37P      0.449000
     51 H6          4.1910   -4.3280   -3.5640 h1        1 37P      0.099700
     52 H7          2.2500   -3.1190   -5.2160 ho        1 37P      0.427000
     53 H8          5.7790   -2.9030   -4.5790 h2        1 37P      0.131700
     54 H9          8.1520   -1.2480   -8.1650 h5        1 37P      0.052100
     55 H10         5.1230    1.7820   -9.9300 hn        1 37P      0.442300
     56 H11         3.7660    1.6650   -8.9130 hn        1 37P      0.442300
     57 H12         2.4700   -0.8030   -4.9170 h5        1 37P      0.090800
     58 H13         3.3570    1.7300    0.0620 hn        1 37P      0.343500
     59 H14         1.2530    3.0830   -1.2560 hc        1 37P      0.078200
     60 H15         2.8500    2.7080   -2.0310 hc        1 37P      0.078200
     61 H16         1.4820    1.1650   -3.6700 hc        1 37P      0.060200
     62 H17         0.0160    2.0090   -3.0430 hc        1 37P      0.060200
     63 H18         2.5070    3.3570   -4.3130 hc        1 37P      0.052200
     64 H19         1.0680    4.2450   -3.6640 hc        1 37P      0.052200
     65 H20        -0.4240    3.2480   -5.2970 hc        1 37P      0.066700
     66 H21         0.8300    2.0440   -5.8220 hc        1 37P      0.066700
     67 H22         0.7770    7.4370   -7.3250 ha        1 37P      0.174000
     68 H24         2.3440    2.6320   -7.5260 ha        1 37P      0.170000
     69 H26         3.2600    8.5330  -11.1360 ha        1 37P      0.179000
     70 H27         5.4910    7.7170  -13.7590 ho        1 37P      0.430000
     71 H28         5.7010    5.5320  -13.1270 ha        1 37P      0.148000
     72 H29         4.9910    3.8160  -11.4740 ha        1 37P      0.154000
@<TRIPOS>BOND
     1    1    2 2   
     2    2    3 2   
     3    2    4 1   
     4    2   23 1   
     5    4    5 1   
     6    5    6 1   
     7    5   46 1   
     8    5   47 1   
     9    6    7 1   
    10    6   22 1   
    11    6   48 1   
    12    7    8 1   
    13    7    9 1   
    14    7   49 1   
    15    8   50 1   
    16    9   10 1   
    17    9   11 1   
    18    9   51 1   
    19   10   52 1   
    20   11   12 1   
    21   11   22 1   
    22   11   53 1   
    23   12   13 1   
    24   12   21 1   
    25   13   14 ar  
    26   13   19 ar  
    27   14   15 ar  
    28   15   16 ar  
    29   15   54 1   
    30   16   17 ar  
    31   17   18 1   
    32   17   19 ar  
    33   18   55 1   
    34   18   56 1   
    35   19   20 1   
    36   20   21 2   
    37   21   57 1   
    38   23   24 1   
    39   23   58 1   
    40   24   25 2   
    41   24   26 1   
    42   26   27 1   
    43   26   59 1   
    44   26   60 1   
    45   27   28 1   
    46   27   61 1   
    47   27   62 1   
    48   28   29 1   
    49   28   63 1   
    50   28   64 1   
    51   29   30 1   
    52   29   65 1   
    53   29   66 1   
    54   30   31 1   
    55   30   36 2   
    56   31   32 2   
    57   31   33 1   
    58   33   34 2   
    59   33   67 1   
    60   34   35 1   
    61   34   37 1   
    62   35   36 1   
    63   35   40 2   
    64   36   68 1   
    65   37   38 1   
    66   38   39 ar  
    67   38   41 ar  
    68   39   40 1   
    69   39   45 ar  
    70   41   42 ar  
    71   41   69 1   
    72   42   43 1   
    73   42   44 ar  
    74   43   70 1   
    75   44   45 ar  
    76   44   71 1   
    77   45   72 1   
@<TRIPOS>SUBSTRUCTURE
     1 37P         1 TEMP              0 ****  ****    0 ROOT
