@<TRIPOS>MOLECULE
37Q
   43    46     1     0     0
SMALL
bcc


@<TRIPOS>ATOM
      1 C4          0.3630    0.4540   -0.5450 ca        1 37Q     -0.116500
      2 C5          1.0440    0.1430    2.1480 ca        1 37Q     -0.142000
      3 C6          1.6910    0.2370   -0.1940 ca        1 37Q     -0.142000
      4 C7          0.4700    5.4880    5.2070 ca        1 37Q     -0.173000
      5 C8          1.3890    5.3700    6.2400 ca        1 37Q     -0.045000
      6 C10         5.5260    0.1230    2.6150 ca        1 37Q      0.209900
      7 C13        -2.1890    5.5970    1.5720 ce        1 37Q     -0.246200
      8 C15         0.6080    4.7550    4.0000 ca        1 37Q      0.092600
      9 C17         2.6140    3.7460    4.8620 ca        1 37Q     -0.017200
     10 C20        -1.4040    5.7070    2.8350 c         1 37Q      0.667300
     11 C1         -3.2460    6.3810    1.3570 c2        1 37Q     -0.125000
     12 C2         -0.6260    0.5250    0.4350 ca        1 37Q     -0.147000
     13 C3         -0.2790    0.3700    1.7760 ca        1 37Q     -0.116500
     14 C9          1.6990    3.8690    3.8230 ca        1 37Q     -0.178000
     15 C11         5.7310    1.6450    4.3220 ca        1 37Q      0.209900
     16 C12         4.2980    3.3170    6.3190 cc        1 37Q      0.426700
     17 C14         2.0510    0.0750    1.1630 ca        1 37Q      0.128600
     18 C16         2.4720    4.5040    6.0930 ca        1 37Q      0.033400
     19 C18         4.1330    0.4720    2.4460 ca        1 37Q      0.567900
     20 C19         4.3480    2.0150    4.1780 ca        1 37Q      0.461500
     21 N21         6.2920    0.7080    3.5410 nb        1 37Q     -0.578000
     22 N22         3.5440    4.1980    6.9680 nd        1 37Q     -0.536100
     23 N23         3.5550    1.4310    3.2300 nb        1 37Q     -0.721000
     24 N24         3.3870   -0.2420    1.4990 nu        1 37Q     -0.716300
     25 N25        -0.3100    4.8560    2.9430 ns        1 37Q     -0.467100
     26 N26         3.8080    3.0030    5.0120 na        1 37Q     -0.219100
     27 O27        -1.7250    6.5160    3.7270 o         1 37Q     -0.592100
     28 H1          0.0950    0.5710   -1.6060 ha        1 37Q      0.136500
     29 H2          1.2910    0.0150    3.2140 ha        1 37Q      0.143500
     30 H3          2.4550    0.1850   -0.9850 ha        1 37Q      0.143500
     31 H4         -0.3820    6.1770    5.3410 ha        1 37Q      0.178000
     32 H5          1.2640    5.9540    7.1650 ha        1 37Q      0.154000
     33 H6          6.0080   -0.6450    1.9880 h4        1 37Q      0.038100
     34 H7         -1.8640    4.8500    0.8300 ha        1 37Q      0.132000
     35 H9         -3.5770    7.1300    2.0930 ha        1 37Q      0.132000
     36 H10        -3.8400    6.3190    0.4350 ha        1 37Q      0.132000
     37 H12        -1.6740    0.6950    0.1510 ha        1 37Q      0.134000
     38 H13        -1.0560    0.4190    2.5540 ha        1 37Q      0.136500
     39 H14         1.8170    3.2940    2.8940 ha        1 37Q      0.158000
     40 H15         6.3910    2.1190    5.0660 h4        1 37Q      0.040100
     41 H16         5.2130    2.8530    6.7080 h5        1 37Q      0.074800
     42 H17         3.9370   -0.5730    0.7330 hn        1 37Q      0.429800
     43 H18        -0.1290    4.2560    2.1670 hn        1 37Q      0.318500
@<TRIPOS>BOND
     1    1    3 ar  
     2    1   12 ar  
     3    1   28 1   
     4    2   13 ar  
     5    2   17 ar  
     6    2   29 1   
     7    3   17 ar  
     8    3   30 1   
     9    4    5 ar  
    10    4    8 ar  
    11    4   31 1   
    12    5   18 ar  
    13    5   32 1   
    14    6   19 ar  
    15    6   21 ar  
    16    6   33 1   
    17    7   10 1   
    18    7   11 2   
    19    7   34 1   
    20    8   14 ar  
    21    8   25 1   
    22    9   14 ar  
    23    9   18 ar  
    24    9   26 1   
    25   10   25 1   
    26   10   27 2   
    27   11   35 1   
    28   11   36 1   
    29   12   13 ar  
    30   12   37 1   
    31   13   38 1   
    32   14   39 1   
    33   15   20 ar  
    34   15   21 ar  
    35   15   40 1   
    36   16   22 2   
    37   16   26 1   
    38   16   41 1   
    39   17   24 1   
    40   18   22 1   
    41   19   23 ar  
    42   19   24 1   
    43   20   23 ar  
    44   20   26 1   
    45   24   42 1   
    46   25   43 1   
@<TRIPOS>SUBSTRUCTURE
     1 37Q         1 TEMP              0 ****  ****    0 ROOT
