@<TRIPOS>MOLECULE
37R
   42    44     1     0     0
SMALL
bcc


@<TRIPOS>ATOM
      1 O15         0.0580   -1.1880    0.1880 oh        1 37R     -0.486100
      2 C2          1.3750   -0.7960    0.1630 ca        1 37R      0.137100
      3 C1          1.9730   -0.1020    1.2230 ca        1 37R     -0.267300
      4 C6          3.3160    0.2570    1.1000 ca        1 37R      0.327000
      5 O7          3.8450    0.9710    2.1780 os        1 37R     -0.395800
      6 C8          5.2270    1.1180    2.1660 ca        1 37R      0.346000
      7 C17         5.7890    1.6200    3.3390 ca        1 37R     -0.263300
      8 C12         7.1750    1.8260    3.3830 ca        1 37R      0.122100
      9 O16         7.7910    2.3450    4.5040 oh        1 37R     -0.517100
     10 C3          2.1060   -1.1310   -0.9890 ca        1 37R     -0.147000
     11 C4          3.4430   -0.7710   -1.0890 ca        1 37R     -0.100000
     12 C11         4.0750   -0.0610   -0.0490 ca        1 37R     -0.139600
     13 N10         5.4130    0.3920   -0.1730 na        1 37R     -0.201100
     14 C9          6.0240    0.8060    1.0320 ca        1 37R     -0.108600
     15 C14         7.4110    1.0060    1.1220 ca        1 37R     -0.114000
     16 C13         7.9940    1.5210    2.2830 ca        1 37R     -0.123300
     17 C15         9.4650    1.7290    2.3600 c3        1 37R     -0.012100
     18 C16         9.8080    3.2060    2.2730 c3        1 37R     -0.080400
     19 C42        11.2900    3.4290    2.5150 c3        1 37R     -0.094400
     20 C43        11.5980    4.9100    2.4680 c3        1 37R     -0.161400
     21 C44        13.0510    5.2520    2.5400 c         1 37R      0.552100
     22 O46        13.6590    6.1630    2.0080 o         1 37R     -0.387100
     23 N45        13.9150    4.3570    3.4190 n4        1 37R     -0.769400
     24 H2         -0.3310   -0.8890    1.0230 ho        1 37R      0.426000
     25 H1          1.4120    0.1620    2.1300 ha        1 37R      0.159000
     26 H17         5.1470    1.8470    4.2010 ha        1 37R      0.162000
     27 HO16        7.1290    2.3930    5.2100 ho        1 37R      0.430000
     28 H3          1.6070   -1.6790   -1.8030 ha        1 37R      0.163000
     29 H4          4.0060   -1.0370   -1.9970 ha        1 37R      0.146000
     30 H5          5.9880   -0.2100   -0.7300 hn        1 37R      0.252700
     31 H14         8.0560    0.7610    0.2630 ha        1 37R      0.141000
     32 H152        9.8370    1.3180    3.3380 hc        1 37R      0.051200
     33 H151        9.9810    1.1710    1.5340 hc        1 37R      0.051200
     34 H161        9.5230    3.6030    1.2640 hc        1 37R      0.068700
     35 H162        9.2100    3.7640    3.0430 hc        1 37R      0.068700
     36 H422       11.8800    2.8830    1.7320 hc        1 37R      0.046200
     37 H421       11.5560    2.9990    3.5170 hc        1 37R      0.046200
     38 H432       11.2070    5.3530    1.5050 hc        1 37R      0.131200
     39 H431       11.0760    5.4450    3.3140 hc        1 37R      0.131200
     40 H451       14.8870    4.6880    3.4230 hn        1 37R      0.469467
     41 H452       13.8860    3.3970    3.0600 hn        1 37R      0.469467
     42 H453       13.5520    4.3580    4.3770 hn        1 37R      0.469467
@<TRIPOS>BOND
     1    1    2 1   
     2    1   24 1   
     3    2    3 ar  
     4    2   10 ar  
     5    3    4 ar  
     6    3   25 1   
     7    4    5 1   
     8    4   12 ar  
     9    5    6 1   
    10    6    7 ar  
    11    6   14 ar  
    12    7    8 ar  
    13    7   26 1   
    14    8    9 1   
    15    8   16 ar  
    16    9   27 1   
    17   10   11 ar  
    18   10   28 1   
    19   11   12 ar  
    20   11   29 1   
    21   12   13 1   
    22   13   14 1   
    23   13   30 1   
    24   14   15 ar  
    25   15   16 ar  
    26   15   31 1   
    27   16   17 1   
    28   17   18 1   
    29   17   32 1   
    30   17   33 1   
    31   18   19 1   
    32   18   34 1   
    33   18   35 1   
    34   19   20 1   
    35   19   36 1   
    36   19   37 1   
    37   20   21 1   
    38   20   38 1   
    39   20   39 1   
    40   21   22 2   
    41   21   23 1   
    42   23   40 1   
    43   23   41 1   
    44   23   42 1   
@<TRIPOS>SUBSTRUCTURE
     1 37R         1 TEMP              0 ****  ****    0 ROOT
