@<TRIPOS>MOLECULE
37R
   42    44     1     0     0
SMALL
bcc


@<TRIPOS>ATOM
      1 O15         0.0600   -1.1900    0.1830 oh        1 37R     -0.486100
      2 C2          1.3750   -0.7940    0.1580 ca        1 37R      0.137100
      3 C1          1.9760   -0.1100    1.2230 ca        1 37R     -0.267300
      4 C6          3.3170    0.2540    1.0990 ca        1 37R      0.327000
      5 O7          3.8490    0.9580    2.1820 os        1 37R     -0.395800
      6 C8          5.2310    1.1080    2.1670 ca        1 37R      0.346000
      7 C17         5.7950    1.6000    3.3430 ca        1 37R     -0.263300
      8 C12         7.1810    1.8090    3.3850 ca        1 37R      0.122100
      9 O16         7.8000    2.3180    4.5080 oh        1 37R     -0.517100
     10 C3          2.1030   -1.1170   -1.0000 ca        1 37R     -0.147000
     11 C4          3.4390   -0.7520   -1.1010 ca        1 37R     -0.100000
     12 C11         4.0740   -0.0510   -0.0560 ca        1 37R     -0.139600
     13 N10         5.4100    0.4060   -0.1790 na        1 37R     -0.201100
     14 C9          6.0240    0.8100    1.0270 ca        1 37R     -0.108600
     15 C14         7.4110    1.0130    1.1140 ca        1 37R     -0.114000
     16 C13         7.9970    1.5170    2.2790 ca        1 37R     -0.123300
     17 C15         9.4670    1.7290    2.3520 c3        1 37R     -0.012100
     18 C16         9.8060    3.2070    2.2790 c3        1 37R     -0.080400
     19 C42        11.2880    3.4320    2.5170 c3        1 37R     -0.094400
     20 C43        11.5920    4.9140    2.4850 c3        1 37R     -0.161400
     21 C44        13.0450    5.2600    2.5550 c         1 37R      0.552100
     22 O46        13.6480    6.1780    2.0310 o         1 37R     -0.387100
     23 N45        13.9140    4.3570    3.4200 nz        1 37R     -0.769400
     24 H2         -0.3280   -0.9000    1.0230 ho        1 37R      0.426000
     25 H1          1.4170    0.1440    2.1350 ha        1 37R      0.159000
     26 H17         5.1550    1.8170    4.2100 ha        1 37R      0.162000
     27 HO16        7.1390    2.3580    5.2170 ho        1 37R      0.430000
     28 H3          1.6030   -1.6570   -1.8170 ha        1 37R      0.163000
     29 H4          4.0000   -1.0080   -2.0130 ha        1 37R      0.146000
     30 H5          5.9850   -0.1890   -0.7450 hn        1 37R      0.252700
     31 H14         8.0530    0.7780    0.2510 ha        1 37R      0.141000
     32 H152        9.9820    1.1800    1.5190 hc        1 37R      0.051200
     33 H151        9.8440    1.3080    3.3250 hc        1 37R      0.051200
     34 H161        9.2100    3.7560    3.0570 hc        1 37R      0.068700
     35 H162        9.5160    3.6130    1.2750 hc        1 37R      0.068700
     36 H422       11.5590    2.9920    3.5140 hc        1 37R      0.046200
     37 H421       11.8760    2.8960    1.7260 hc        1 37R      0.046200
     38 H432       11.0720    5.4390    3.3380 hc        1 37R      0.131200
     39 H431       11.1960    5.3670    1.5280 hc        1 37R      0.131200
     40 H451       13.8870    3.4010    3.0500 hn        1 37R      0.469467
     41 H452       13.5560    4.3460    4.3790 hn        1 37R      0.469467
     42 H453       14.8860    4.6910    3.4240 hn        1 37R      0.469467
@<TRIPOS>BOND
     1    1    2 1   
     2    1   24 1   
     3    2    3 ar  
     4    2   10 ar  
     5    3    4 ar  
     6    3   25 1   
     7    4    5 1   
     8    4   12 ar  
     9    5    6 1   
    10    6    7 ar  
    11    6   14 ar  
    12    7    8 ar  
    13    7   26 1   
    14    8    9 1   
    15    8   16 ar  
    16    9   27 1   
    17   10   11 ar  
    18   10   28 1   
    19   11   12 ar  
    20   11   29 1   
    21   12   13 1   
    22   13   14 1   
    23   13   30 1   
    24   14   15 ar  
    25   15   16 ar  
    26   15   31 1   
    27   16   17 1   
    28   17   18 1   
    29   17   32 1   
    30   17   33 1   
    31   18   19 1   
    32   18   34 1   
    33   18   35 1   
    34   19   20 1   
    35   19   36 1   
    36   19   37 1   
    37   20   21 1   
    38   20   38 1   
    39   20   39 1   
    40   21   22 2   
    41   21   23 1   
    42   23   40 1   
    43   23   41 1   
    44   23   42 1   
@<TRIPOS>SUBSTRUCTURE
     1 37R         1 TEMP              0 ****  ****    0 ROOT
