@<TRIPOS>MOLECULE
37R
   41    43     1     0     0
SMALL
bcc


@<TRIPOS>ATOM
      1 O15         0.1940   -1.1310   -0.1510 oh        1 37R     -0.493100
      2 C2          1.4720   -0.6280   -0.0590 ca        1 37R      0.126100
      3 C1          2.0700   -0.3240    1.1710 ca        1 37R     -0.270300
      4 C6          3.3680    0.1870    1.1660 ca        1 37R      0.332000
      5 O7          3.8960    0.4980    2.4190 os        1 37R     -0.400800
      6 C8          5.2660    0.7510    2.4330 ca        1 37R      0.331000
      7 C17         5.8590    0.8000    3.6930 ca        1 37R     -0.268300
      8 C12         7.2300    1.0810    3.7810 ca        1 37R      0.127100
      9 O16         7.8710    1.1510    4.9990 oh        1 37R     -0.497100
     10 C3          2.1600   -0.4380   -1.2670 ca        1 37R     -0.152000
     11 C4          3.4550    0.0660   -1.2520 ca        1 37R     -0.109000
     12 C11         4.0850    0.3980   -0.0370 ca        1 37R     -0.129600
     13 N10         5.3670    1.0010   -0.0080 na        1 37R     -0.199100
     14 C9          6.0150    0.9700    1.2500 ca        1 37R     -0.123600
     15 C14         7.3900    1.2310    1.3760 ca        1 37R     -0.112000
     16 C13         8.0070    1.2960    2.6280 ca        1 37R     -0.096300
     17 C15         9.4650    1.5760    2.7210 c3        1 37R     -0.028100
     18 C16         9.7790    3.0250    2.3980 c3        1 37R     -0.076400
     19 C42        11.2700    3.2830    2.4730 c3        1 37R     -0.076400
     20 C43        11.5800    4.7290    2.1510 c3        1 37R     -0.154400
     21 C44        13.0730    4.9890    2.1050 c         1 37R      0.656100
     22 O46        13.6430    5.3420    1.0530 o         1 37R     -0.614100
     23 N45        13.7970    4.8480    3.2630 n         1 37R     -0.679000
     24 H2         -0.1650   -1.2010    0.7450 ho        1 37R      0.422000
     25 H1          1.5420   -0.4740    2.1230 ha        1 37R      0.155000
     26 H17         5.2510    0.6250    4.5920 ha        1 37R      0.155000
     27 HO16        7.2180    0.9640    5.6890 ho        1 37R      0.422000
     28 H3          1.6650   -0.6890   -2.2160 ha        1 37R      0.156000
     29 H4          3.9860    0.2120   -2.2050 ha        1 37R      0.143000
     30 H5          5.9560    0.7180   -0.7670 hn        1 37R      0.249700
     31 H14         8.0030    1.3980    0.4750 ha        1 37R      0.144000
     32 H152       10.0160    0.9080    2.0040 hc        1 37R      0.057200
     33 H151        9.8350    1.3350    3.7540 hc        1 37R      0.057200
     34 H161        9.2420    3.6950    3.1200 hc        1 37R      0.047700
     35 H162        9.4030    3.2720    1.3710 hc        1 37R      0.047700
     36 H422       11.8050    2.6140    1.7490 hc        1 37R      0.045700
     37 H421       11.6400    3.0260    3.5010 hc        1 37R      0.045700
     38 H432       11.1040    5.4060    2.9090 hc        1 37R      0.072200
     39 H431       11.1600    4.9950    1.1450 hc        1 37R      0.072200
     40 H451       13.3690    4.5440    4.0970 hn        1 37R      0.310000
     41 H452       14.7740    5.0060    3.2540 hn        1 37R      0.310000
@<TRIPOS>BOND
     1    1    2 1   
     2    1   24 1   
     3    2    3 ar  
     4    2   10 ar  
     5    3    4 ar  
     6    3   25 1   
     7    4    5 1   
     8    4   12 ar  
     9    5    6 1   
    10    6    7 ar  
    11    6   14 ar  
    12    7    8 ar  
    13    7   26 1   
    14    8    9 1   
    15    8   16 ar  
    16    9   27 1   
    17   10   11 ar  
    18   10   28 1   
    19   11   12 ar  
    20   11   29 1   
    21   12   13 1   
    22   13   14 1   
    23   13   30 1   
    24   14   15 ar  
    25   15   16 ar  
    26   15   31 1   
    27   16   17 1   
    28   17   18 1   
    29   17   32 1   
    30   17   33 1   
    31   18   19 1   
    32   18   34 1   
    33   18   35 1   
    34   19   20 1   
    35   19   36 1   
    36   19   37 1   
    37   20   21 1   
    38   20   38 1   
    39   20   39 1   
    40   21   22 2   
    41   21   23 1   
    42   23   40 1   
    43   23   41 1   
@<TRIPOS>SUBSTRUCTURE
     1 37R         1 TEMP              0 ****  ****    0 ROOT
