@<TRIPOS>MOLECULE
37T
   21    20     1     0     0
SMALL
bcc


@<TRIPOS>ATOM
      1 O6         -2.6400    0.0980    1.0390 o         1 37T     -0.354000
      2 C6         -1.4250    0.0980    1.0390 c1        1 37T      0.402000
      3 N1         -0.7180    0.0980    2.2640 n2        1 37T     -0.360000
      4 C5         -0.6790    0.0980   -0.2510 c2        1 37T     -0.241000
      5 N7         -1.1820    0.0980   -1.6510 n3        1 37T     -0.103000
      6 C13        -2.4140   -0.4570   -2.0980 c3        1 37T     -0.089000
      7 C8          0.1160    0.0980   -2.4130 c2        1 37T     -0.044000
      8 N9          1.2040    0.0980   -1.5140 n1        1 37T     -0.158000
      9 C4          0.7470    0.0980   -0.2470 c1        1 37T      0.078000
     10 N3          1.4650    0.0980    1.0070 n         1 37T     -0.233000
     11 C12         2.8880    0.1090    1.0120 c3        1 37T     -0.065000
     12 C2          0.7330    0.0980    2.2650 c2        1 37T      0.407000
     13 O2          1.3390    0.1080    3.3190 o         1 37T     -0.363000
     14 HN1        -1.1740    0.0980    3.0540 hn        1 37T      0.272000
     15 H131       -2.3880   -0.5700   -3.0670 h1        1 37T      0.111333
     16 H132       -2.5530   -1.3250   -1.6730 h1        1 37T      0.111333
     17 H133       -3.1470    0.1430   -1.8600 h1        1 37T      0.111333
     18 H8          0.1840    0.5750   -3.2620 h5        1 37T      0.208000
     19 H121        3.2170    0.0540    0.0940 h1        1 37T      0.103000
     20 H122        3.2070    0.9350    1.4220 h1        1 37T      0.103000
     21 H123        3.2180   -0.6560    1.5220 h1        1 37T      0.103000
@<TRIPOS>BOND
     1    1    2 1   
     2    2    4 1   
     3    3   12 1   
     4    3   14 1   
     5    4    5 1   
     6    4    9 1   
     7    5    6 1   
     8    5    7 1   
     9    6   15 1   
    10    6   16 1   
    11    6   17 1   
    12    7    8 1   
    13    7   18 1   
    14    9   10 1   
    15   10   11 1   
    16   10   12 1   
    17   11   19 1   
    18   11   20 1   
    19   11   21 1   
    20   12   13 1   
@<TRIPOS>SUBSTRUCTURE
     1 37T         1 TEMP              0 ****  ****    0 ROOT
