@<TRIPOS>MOLECULE
37T
   21    22     1     0     0
SMALL
bcc


@<TRIPOS>ATOM
      1 O6         -5.9760   -0.1410   -0.9550 o         1 37T     -0.629500
      2 C6         -4.7450   -0.2790   -0.8440 c         1 37T      0.765100
      3 N1         -4.2170   -1.2790   -0.0140 n         1 37T     -0.580500
      4 C5         -3.7320    0.5190   -1.5090 cc        1 37T     -0.351200
      5 N7         -3.8340    1.5910   -2.4000 na        1 37T     -0.147900
      6 C13        -5.0400    2.1810   -2.8870 c3        1 37T      0.009600
      7 C8         -2.5270    1.9610   -2.7100 cc        1 37T      0.444400
      8 N9         -1.5870    1.2020   -2.0820 nd        1 37T     -0.684000
      9 C4         -2.3280    0.2870   -1.3190 cd        1 37T      0.486200
     10 N3         -1.8780   -0.7240   -0.4810 n         1 37T     -0.417300
     11 C12        -0.4700   -0.9540   -0.2930 c3        1 37T      0.090300
     12 C2         -2.8420   -1.5200    0.1830 c         1 37T      0.816500
     13 O2         -2.4890   -2.4430    0.9490 o         1 37T     -0.638500
     14 HN1        -4.8450   -1.8750    0.4830 hn        1 37T      0.358500
     15 H131       -5.9240    1.6470   -2.4410 h1        1 37T      0.072033
     16 H132       -5.0750    3.2660   -2.5980 h1        1 37T      0.072033
     17 H133       -5.0780    2.0970   -4.0060 h1        1 37T      0.072033
     18 H8         -2.2930    2.7850   -3.3960 h5        1 37T      0.071100
     19 H121        0.0090   -0.0280    0.1250 h1        1 37T      0.063700
     20 H122        0.0050   -1.1960   -1.2810 h1        1 37T      0.063700
     21 H123       -0.3200   -1.8100    0.4180 h1        1 37T      0.063700
@<TRIPOS>BOND
     1    1    2 2   
     2    2    3 1   
     3    2    4 1   
     4    3   12 1   
     5    3   14 1   
     6    4    5 1   
     7    4    9 2   
     8    5    6 1   
     9    5    7 1   
    10    6   15 1   
    11    6   16 1   
    12    6   17 1   
    13    7    8 2   
    14    7   18 1   
    15    8    9 1   
    16    9   10 1   
    17   10   11 1   
    18   10   12 1   
    19   11   19 1   
    20   11   20 1   
    21   11   21 1   
    22   12   13 2   
@<TRIPOS>SUBSTRUCTURE
     1 37T         1 TEMP              0 ****  ****    0 ROOT
