@<TRIPOS>MOLECULE
37T
   21    22     1     0     0
SMALL
bcc


@<TRIPOS>ATOM
      1 O6         -0.0020   -0.1860    0.0510 o         1 37T     -0.629500
      2 C6          1.2400   -0.1280    0.0100 c         1 37T      0.765100
      3 N1          1.9900   -0.1950    1.1940 n         1 37T     -0.580500
      4 C5          2.0510    0.0090   -1.1850 cc        1 37T     -0.351200
      5 N7          1.7020    0.1080   -2.5350 na        1 37T     -0.147900
      6 C13         0.3810    0.0950   -3.0760 c3        1 37T      0.009600
      7 C8          2.9020    0.2210   -3.2350 cc        1 37T      0.444400
      8 N9          4.0010    0.2020   -2.4330 nd        1 37T     -0.684000
      9 C4          3.4840    0.0690   -1.1350 cd        1 37T      0.486200
     10 N3          4.1610   -0.0040    0.0760 n         1 37T     -0.417300
     11 C12         5.5970    0.0560    0.1220 c3        1 37T      0.090300
     12 C2          3.3980   -0.1380    1.2610 c         1 37T      0.816500
     13 O2          3.9580   -0.2070    2.3760 o         1 37T     -0.638500
     14 HN1         1.5110   -0.2890    2.0650 hn        1 37T      0.358500
     15 H131        0.1890    1.0530   -3.6310 h1        1 37T      0.072033
     16 H132        0.2700   -0.7690   -3.7850 h1        1 37T      0.072033
     17 H133       -0.3650   -0.0090   -2.2400 h1        1 37T      0.072033
     18 H8          2.9410    0.3150   -4.3280 h5        1 37T      0.071100
     19 H121        5.9470    1.0280   -0.3200 h1        1 37T      0.063700
     20 H122        6.0270   -0.7920   -0.4740 h1        1 37T      0.063700
     21 H123        5.9430   -0.0190    1.1880 h1        1 37T      0.063700
@<TRIPOS>BOND
     1    1    2 2   
     2    2    3 1   
     3    2    4 1   
     4    3   12 1   
     5    3   14 1   
     6    4    5 1   
     7    4    9 2   
     8    5    6 1   
     9    5    7 1   
    10    6   15 1   
    11    6   16 1   
    12    6   17 1   
    13    7    8 2   
    14    7   18 1   
    15    8    9 1   
    16    9   10 1   
    17   10   11 1   
    18   10   12 1   
    19   11   19 1   
    20   11   20 1   
    21   11   21 1   
    22   12   13 2   
@<TRIPOS>SUBSTRUCTURE
     1 37T         1 TEMP              0 ****  ****    0 ROOT
