@<TRIPOS>MOLECULE
37T
   21    22     1     0     0
SMALL
bcc


@<TRIPOS>ATOM
      1 O6          0.0020   -0.1610    0.0670 o         1 37T     -0.629500
      2 C6          1.2440   -0.1120    0.0190 c         1 37T      0.765100
      3 N1          2.0010   -0.1790    1.1990 n         1 37T     -0.580500
      4 C5          2.0500    0.0130   -1.1810 cc        1 37T     -0.351200
      5 N7          1.6940    0.1080   -2.5300 na        1 37T     -0.147900
      6 C13         0.3700    0.1040   -3.0630 c3        1 37T      0.009600
      7 C8          2.8900    0.2080   -3.2370 cc        1 37T      0.444400
      8 N9          3.9940    0.1850   -2.4410 nd        1 37T     -0.684000
      9 C4          3.4830    0.0620   -1.1390 cd        1 37T      0.486200
     10 N3          4.1660   -0.0110    0.0680 n         1 37T     -0.417300
     11 C12         5.6040    0.0400    0.1060 c3        1 37T      0.090300
     12 C2          3.4090   -0.1330    1.2580 c         1 37T      0.816500
     13 O2          3.9750   -0.2010    2.3700 o         1 37T     -0.638500
     14 HN1         1.5250   -0.2660    2.0730 hn        1 37T      0.358500
     15 H131        0.1810    1.0610   -3.6200 h1        1 37T      0.072033
     16 H132       -0.3720    0.0080   -2.2220 h1        1 37T      0.072033
     17 H133        0.2480   -0.7620   -3.7690 h1        1 37T      0.072033
     18 H8          2.9240    0.2970   -4.3300 h5        1 37T      0.071100
     19 H121        5.9550   -0.0380    1.1700 h1        1 37T      0.063700
     20 H122        5.9570    1.0080   -0.3380 h1        1 37T      0.063700
     21 H123        6.0240   -0.8120   -0.4930 h1        1 37T      0.063700
@<TRIPOS>BOND
     1    1    2 2   
     2    2    3 1   
     3    2    4 1   
     4    3   12 1   
     5    3   14 1   
     6    4    5 1   
     7    4    9 2   
     8    5    6 1   
     9    5    7 1   
    10    6   15 1   
    11    6   16 1   
    12    6   17 1   
    13    7    8 2   
    14    7   18 1   
    15    8    9 1   
    16    9   10 1   
    17   10   11 1   
    18   10   12 1   
    19   11   19 1   
    20   11   20 1   
    21   11   21 1   
    22   12   13 2   
@<TRIPOS>SUBSTRUCTURE
     1 37T         1 TEMP              0 ****  ****    0 ROOT
