@<TRIPOS>MOLECULE
37T
   21    22     1     0     0
SMALL
bcc


@<TRIPOS>ATOM
      1 O6         -0.0060   -0.1740    0.0440 o         1 37T     -0.629500
      2 C6          1.2370   -0.1240    0.0060 c         1 37T      0.765100
      3 N1          1.9840   -0.2050    1.1910 ns        1 37T     -0.580500
      4 C5          2.0520    0.0160   -1.1860 cc        1 37T     -0.351200
      5 N7          1.7060    0.1280   -2.5360 na        1 37T     -0.147900
      6 C13         0.3860    0.1290   -3.0800 c3        1 37T      0.009600
      7 C8          2.9080    0.2360   -3.2330 cc        1 37T      0.444400
      8 N9          4.0050    0.2030   -2.4290 nd        1 37T     -0.684000
      9 C4          3.4850    0.0650   -1.1330 cd        1 37T      0.486200
     10 N3          4.1580   -0.0220    0.0780 n         1 37T     -0.417300
     11 C12         5.5950    0.0270    0.1280 c3        1 37T      0.090300
     12 C2          3.3920   -0.1590    1.2610 c         1 37T      0.816500
     13 O2          3.9500   -0.2410    2.3770 o         1 37T     -0.638500
     14 HN1         1.5030   -0.3030    2.0600 hn        1 37T      0.358500
     15 H131        0.2010    1.0930   -3.6260 h1        1 37T      0.072033
     16 H132        0.2700   -0.7290   -3.7960 h1        1 37T      0.072033
     17 H133       -0.3620    0.0230   -2.2450 h1        1 37T      0.072033
     18 H8          2.9490    0.3380   -4.3250 h5        1 37T      0.071100
     19 H121        5.9520    1.0000   -0.3060 h1        1 37T      0.063700
     20 H122        6.0210   -0.8200   -0.4750 h1        1 37T      0.063700
     21 H123        5.9380   -0.0590    1.1940 h1        1 37T      0.063700
@<TRIPOS>BOND
     1    1    2 2   
     2    2    3 1   
     3    2    4 1   
     4    3   12 1   
     5    3   14 1   
     6    4    5 1   
     7    4    9 2   
     8    5    6 1   
     9    5    7 1   
    10    6   15 1   
    11    6   16 1   
    12    6   17 1   
    13    7    8 2   
    14    7   18 1   
    15    8    9 1   
    16    9   10 1   
    17   10   11 1   
    18   10   12 1   
    19   11   19 1   
    20   11   20 1   
    21   11   21 1   
    22   12   13 2   
@<TRIPOS>SUBSTRUCTURE
     1 37T         1 TEMP              0 ****  ****    0 ROOT
