@<TRIPOS>MOLECULE
37U
   51    46     1     0     0
SMALL
bcc


@<TRIPOS>ATOM
      1 N25        -2.2590   -0.7270   -2.4330 n3        1 37U     -0.335000
      2 C7         -0.8520   -0.6930   -2.4480 c3        1 37U     -0.036000
      3 C6         -0.3250   -0.6510   -1.0080 c1        1 37U      0.306000
      4 O27        -0.6990   -1.4760   -0.2010 o         1 37U     -0.399000
      5 C8         -0.3270   -1.9330   -3.1440 c3        1 37U     -0.157000
      6 C9         -0.9550   -2.0290   -4.5920 c2        1 37U     -0.082000
      7 C10        -1.8060   -3.0690   -4.9060 c1        1 37U     -0.137000
      8 C14        -0.5580   -1.1330   -5.5840 c2        1 37U     -0.124000
      9 C11        -2.2670   -3.2230   -6.2130 c1        1 37U     -0.124500
     10 C13        -1.0190   -1.2860   -6.8850 c1        1 37U     -0.125000
     11 C12        -1.8710   -2.3290   -7.1990 c1        1 37U     -0.124500
     12 N15         0.6360    0.3650   -0.6150 n2        1 37U     -0.304000
     13 C5          1.1780    0.5080    0.5690 c3        1 37U      0.005000
     14 C4          0.2220    0.0540    1.6190 c1        1 37U      0.294000
     15 O26        -0.9140   -0.2480    1.3150 o         1 37U     -0.380000
     16 C17         1.5000    2.1170    0.5930 c3        1 37U     -0.167000
     17 C16         1.3220    2.6040   -0.8210 c3        1 37U     -0.174000
     18 C15         1.2350    1.5290   -1.5550 c3        1 37U     -0.020000
     19 C1          0.6300   -0.2140    6.4030 c1        1 37U     -0.124500
     20 C2          0.3280    0.6560    5.3650 c1        1 37U     -0.088000
     21 C3         -0.3490    0.1110    4.0590 c3        1 37U      0.007000
     22 N9          0.6380    0.0080    3.0070 n2        1 37U     -0.362000
     23 C18         0.5760    2.0210    5.5040 c1        1 37U     -0.150000
     24 C19         1.1280    2.5130    6.6880 c1        1 37U      0.086000
     25 F7          1.3000    3.8440    6.8500 f         1 37U     -0.107000
     26 C20         1.4300    1.6410    7.7270 c1        1 37U     -0.163000
     27 C21         1.1820    0.2770    7.5870 c1        1 37U     -0.124500
     28 HN25       -2.5720   -0.1270   -1.8170 hn        1 37U      0.156000
     29 HN2A       -2.5770   -0.5100   -3.2560 hn        1 37U      0.156000
     30 H7         -0.5520    0.0960   -2.9250 h1        1 37U      0.117000
     31 H8         -0.5760   -2.7300   -2.6260 hc        1 37U      0.111500
     32 H8A         0.6340   -1.8810   -3.2130 hc        1 37U      0.111500
     33 H10        -2.0820   -3.6910   -4.2210 ha        1 37U      0.129000
     34 H14         0.0360   -0.4050   -5.3660 ha        1 37U      0.134000
     35 H11        -2.8630   -3.9510   -6.4320 ha        1 37U      0.134750
     36 H13        -0.7390   -0.6560   -7.5810 ha        1 37U      0.134000
     37 H12        -2.1940   -2.4360   -8.1130 ha        1 37U      0.134750
     38 H5          1.9650   -0.0170    0.7830 h1        1 37U      0.124000
     39 H17         2.4130    2.2710    0.8850 hc        1 37U      0.113500
     40 H17A        0.8740    2.5770    1.1890 hc        1 37U      0.113500
     41 H16         0.4970    3.1330   -0.8960 hc        1 37U      0.095000
     42 H16A        2.1000    3.1420   -1.0980 hc        1 37U      0.095000
     43 H15         2.1310    1.2710   -1.8830 h1        1 37U      0.098000
     44 H15A        0.6420    1.6870   -2.3050 h1        1 37U      0.098000
     45 H1          0.4550   -1.1710    6.3060 ha        1 37U      0.134750
     46 H3         -1.0570    0.7210    3.7820 h1        1 37U      0.107500
     47 H3A        -0.7320   -0.7760    4.2350 h1        1 37U      0.107500
     48 HN9         1.5190   -0.0640    3.2160 hn        1 37U      0.250000
     49 H18         0.3630    2.6330    4.7760 ha        1 37U      0.171000
     50 H20         1.8180    1.9860    8.5590 ha        1 37U      0.147000
     51 H21         1.3950   -0.3380    8.3200 ha        1 37U      0.134750
@<TRIPOS>BOND
     1    1    2 1   
     2    1   28 1   
     3    1   29 1   
     4    2    3 1   
     5    2    5 1   
     6    2   30 1   
     7    3    4 1   
     8    5    6 1   
     9    5   31 1   
    10    5   32 1   
    11    6    7 1   
    12    6    8 1   
    13    7   33 1   
    14    8   10 1   
    15    8   34 1   
    16    9   11 1   
    17    9   35 1   
    18   10   36 1   
    19   11   37 1   
    20   12   13 1   
    21   12   18 1   
    22   13   14 1   
    23   13   16 1   
    24   13   38 1   
    25   14   15 1   
    26   16   17 1   
    27   16   39 1   
    28   16   40 1   
    29   17   18 1   
    30   17   41 1   
    31   17   42 1   
    32   18   43 1   
    33   18   44 1   
    34   19   27 1   
    35   19   45 1   
    36   20   21 1   
    37   20   23 1   
    38   21   22 1   
    39   21   46 1   
    40   21   47 1   
    41   22   48 1   
    42   23   49 1   
    43   24   25 1   
    44   24   26 1   
    45   26   50 1   
    46   27   51 1   
@<TRIPOS>SUBSTRUCTURE
     1 37U         1 TEMP              0 ****  ****    0 ROOT
