@<TRIPOS>MOLECULE
37U
   51    53     1     0     0
SMALL
bcc


@<TRIPOS>ATOM
      1 N25        -2.4750   -2.1440    0.4120 n3        1 37U     -0.889800
      2 C7         -2.5120   -0.7390    0.0840 c3        1 37U      0.123500
      3 C6         -1.1110   -0.1640   -0.2540 c         1 37U      0.614100
      4 O27        -0.2690   -0.8750   -0.8470 o         1 37U     -0.638100
      5 C8         -3.4170   -0.4340   -1.1270 c3        1 37U     -0.029100
      6 C9         -4.8570   -0.4530   -0.7530 ca        1 37U     -0.085300
      7 C10        -5.5450    0.7480   -0.5470 ca        1 37U     -0.117500
      8 C14        -5.5410   -1.6670   -0.6210 ca        1 37U     -0.117500
      9 C11        -6.8980    0.7360   -0.2130 ca        1 37U     -0.130500
     10 C13        -6.8940   -1.6770   -0.2850 ca        1 37U     -0.130500
     11 C12        -7.5750   -0.4770   -0.0820 ca        1 37U     -0.127000
     12 N15        -0.7810    1.1130    0.1510 n         1 37U     -0.455800
     13 C5          0.4490    1.7690   -0.2790 c3        1 37U      0.031700
     14 C4          1.6550    1.4490    0.6370 c         1 37U      0.649100
     15 O26         2.3010    2.3580    1.1960 o         1 37U     -0.620100
     16 C17         0.1630    3.2870   -0.3000 c3        1 37U     -0.088400
     17 C16        -1.1850    3.4830    0.3840 c3        1 37U     -0.090400
     18 C15        -1.7500    2.0770    0.6420 c3        1 37U      0.085000
     19 C1          5.0570    0.7230    0.2710 ca        1 37U     -0.128000
     20 C2          4.3950   -0.4270    0.7140 ca        1 37U     -0.096300
     21 C3          3.1430   -0.2920    1.5380 c3        1 37U      0.130300
     22 N9          1.9770    0.1200    0.8040 n         1 37U     -0.551900
     23 C18         4.9040   -1.6900    0.4140 ca        1 37U     -0.156000
     24 C19         6.0930   -1.7960   -0.3310 ca        1 37U      0.119900
     25 F7          6.5960   -3.0200   -0.6220 f         1 37U     -0.142900
     26 C20         6.7610   -0.6400   -0.7760 ca        1 37U     -0.161000
     27 C21         6.2330    0.6110   -0.4690 ca        1 37U     -0.109000
     28 HN25       -2.1200   -2.6800   -0.3570 hn        1 37U      0.362800
     29 HN2A       -1.8970   -2.3010    1.2140 hn        1 37U      0.362800
     30 H7         -2.9250   -0.2020    0.9900 h1        1 37U      0.082700
     31 H8         -3.1440    0.5770   -1.5330 hc        1 37U      0.059700
     32 H8A        -3.2250   -1.1800   -1.9450 hc        1 37U      0.059700
     33 H10        -5.0170    1.7080   -0.6520 ha        1 37U      0.134000
     34 H14        -5.0020   -2.6150   -0.7730 ha        1 37U      0.134000
     35 H11        -7.4330    1.6830   -0.0530 ha        1 37U      0.132000
     36 H13        -7.4240   -2.6350   -0.1810 ha        1 37U      0.132000
     37 H12        -8.6420   -0.4870    0.1820 ha        1 37U      0.132000
     38 H5          0.7270    1.4040   -1.3120 h1        1 37U      0.085700
     39 H17         0.9710    3.8520    0.2280 hc        1 37U      0.075200
     40 H17A        0.1270    3.6400   -1.3610 hc        1 37U      0.075200
     41 H16        -1.8820    4.0710   -0.2620 hc        1 37U      0.058200
     42 H16A       -1.0630    4.0320    1.3500 hc        1 37U      0.058200
     43 H15        -2.7400    1.9470    0.1230 h1        1 37U      0.051200
     44 H15A       -1.9080    1.9100    1.7440 h1        1 37U      0.051200
     45 H3          2.9050   -1.2840    2.0210 h1        1 37U      0.069200
     46 H3A         3.3380    0.4650    2.3540 h1        1 37U      0.069200
     47 HN9         1.5630   -0.5520    0.1940 hn        1 37U      0.336500
     48 H18         4.3940   -2.6030    0.7530 ha        1 37U      0.147000
     49 H20         7.6890   -0.7370   -1.3570 ha        1 37U      0.147000
     50 H21         6.7510    1.5180   -0.8140 ha        1 37U      0.138000
     51 H1          4.6380    1.7130    0.5150 ha        1 37U      0.160000
@<TRIPOS>BOND
     1    1    2 1   
     2    1   28 1   
     3    1   29 1   
     4    2    3 1   
     5    2    5 1   
     6    2   30 1   
     7    3    4 2   
     8    3   12 1   
     9    5    6 1   
    10    5   31 1   
    11    5   32 1   
    12    6    7 ar  
    13    6    8 ar  
    14    7    9 ar  
    15    7   33 1   
    16    8   10 ar  
    17    8   34 1   
    18    9   11 ar  
    19    9   35 1   
    20   10   11 ar  
    21   10   36 1   
    22   11   37 1   
    23   12   13 1   
    24   12   18 1   
    25   13   14 1   
    26   13   16 1   
    27   13   38 1   
    28   14   15 2   
    29   14   22 1   
    30   16   17 1   
    31   16   39 1   
    32   16   40 1   
    33   17   18 1   
    34   17   41 1   
    35   17   42 1   
    36   18   43 1   
    37   18   44 1   
    38   19   20 ar  
    39   19   27 ar  
    40   19   51 1   
    41   20   21 1   
    42   20   23 ar  
    43   21   22 1   
    44   21   45 1   
    45   21   46 1   
    46   22   47 1   
    47   23   24 ar  
    48   23   48 1   
    49   24   25 1   
    50   24   26 ar  
    51   26   27 ar  
    52   26   49 1   
    53   27   50 1   
@<TRIPOS>SUBSTRUCTURE
     1 37U         1 TEMP              0 ****  ****    0 ROOT
