@<TRIPOS>MOLECULE
37V
   38    40     1     0     0
SMALL
bcc


@<TRIPOS>ATOM
      1 N1         -0.0140    0.6520   -0.6480 n         1 37V     -0.542900
      2 C3          1.2790    1.1240   -0.2440 c3        1 37V      0.068700
      3 C4          1.7840    0.5650    1.0580 cc        1 37V      0.317200
      4 S5          2.6900    1.5840    2.1300 ss        1 37V     -0.007100
      5 C6          2.8930    0.3050    3.2130 ca        1 37V     -0.092100
      6 C7          3.5600    0.2530    4.4390 ca        1 37V     -0.089000
      7 C8          3.5790   -0.9350    5.1510 ca        1 37V     -0.118000
      8 C9          2.9370   -2.0840    4.6560 ca        1 37V     -0.130000
      9 C10         2.2680   -2.0650    3.4440 ca        1 37V     -0.074000
     10 C12         2.2370   -0.8670    2.7020 ca        1 37V      0.082400
     11 N13         1.6090   -0.6830    1.4610 nd        1 37V     -0.529100
     12 C19        -1.1550    1.4150   -0.4460 c         1 37V      0.675700
     13 O20        -1.0780    2.6230   -0.1410 o         1 37V     -0.597100
     14 C21        -2.4850    0.7620   -0.6230 ca        1 37V     -0.178600
     15 C22        -3.5050    1.1740    0.2460 ca        1 37V     -0.028000
     16 C24        -4.7840    0.6410    0.1680 ca        1 37V     -0.196000
     17 C26        -5.0670   -0.3320   -0.8100 ca        1 37V      0.183900
     18 F27        -6.3070   -0.8630   -0.8960 f         1 37V     -0.126900
     19 C28        -4.0680   -0.7570   -1.7020 ca        1 37V     -0.244000
     20 C30        -2.7860   -0.2040   -1.6010 ca        1 37V      0.177100
     21 O31        -1.7530   -0.6140   -2.4260 os        1 37V     -0.353900
     22 C32        -2.1390   -1.1390   -3.7000 c3        1 37V      0.031400
     23 C33        -0.9520   -0.9930   -4.6220 c         1 37V      0.630100
     24 O34        -0.8790   -1.5060   -5.7370 o         1 37V     -0.484000
     25 O36         0.1280   -0.2540   -4.2620 oh        1 37V     -0.567100
     26 H1         -0.1240   -0.3360   -0.7240 hn        1 37V      0.327500
     27 H2          2.0190    0.8320   -1.0490 h1        1 37V      0.086700
     28 H3          1.2530    2.2510   -0.1670 h1        1 37V      0.086700
     29 H4          4.0640    1.1490    4.8320 ha        1 37V      0.141000
     30 H5          4.1010   -0.9860    6.1190 ha        1 37V      0.138000
     31 H6          2.9700   -3.0130    5.2460 ha        1 37V      0.138000
     32 H7          1.7670   -2.9640    3.0560 ha        1 37V      0.151000
     33 H8         -3.2750    1.9520    0.9970 ha        1 37V      0.169000
     34 H9         -5.5770    0.9720    0.8550 ha        1 37V      0.162000
     35 H10        -4.3060   -1.5220   -2.4550 ha        1 37V      0.161000
     36 H11        -2.3950   -2.2260   -3.5840 h1        1 37V      0.089200
     37 H12        -3.0110   -0.5760   -4.1270 h1        1 37V      0.089200
     38 H121        0.0070    0.1280   -3.3780 ho        1 37V      0.451000
@<TRIPOS>BOND
     1    1    2 1   
     2    1   12 1   
     3    1   26 1   
     4    2    3 1   
     5    2   27 1   
     6    2   28 1   
     7    3    4 1   
     8    3   11 2   
     9    4    5 1   
    10    5    6 ar  
    11    5   10 ar  
    12    6    7 ar  
    13    6   29 1   
    14    7    8 ar  
    15    7   30 1   
    16    8    9 ar  
    17    8   31 1   
    18    9   10 ar  
    19    9   32 1   
    20   10   11 1   
    21   12   13 2   
    22   12   14 1   
    23   14   15 ar  
    24   14   20 ar  
    25   15   16 ar  
    26   15   33 1   
    27   16   17 ar  
    28   16   34 1   
    29   17   18 1   
    30   17   19 ar  
    31   19   20 ar  
    32   19   35 1   
    33   20   21 1   
    34   21   22 1   
    35   22   23 1   
    36   22   36 1   
    37   22   37 1   
    38   23   24 2   
    39   23   25 1   
    40   25   38 1   
@<TRIPOS>SUBSTRUCTURE
     1 37V         1 TEMP              0 ****  ****    0 ROOT
