@<TRIPOS>MOLECULE
37V
   38    40     1     0     0
SMALL
bcc


@<TRIPOS>ATOM
      1 N1         -0.0200    0.6640   -0.6390 ns        1 37V     -0.542900
      2 C3          1.2650    1.1490   -0.2240 c3        1 37V      0.068700
      3 C4          1.7710    0.5840    1.0750 cc        1 37V      0.317200
      4 S5          2.6610    1.6040    2.1590 ss        1 37V     -0.007100
      5 C6          2.8750    0.3180    3.2320 ca        1 37V     -0.092100
      6 C7          3.5380    0.2630    4.4600 ca        1 37V     -0.089000
      7 C8          3.5670   -0.9320    5.1620 ca        1 37V     -0.118000
      8 C9          2.9420   -2.0830    4.6530 ca        1 37V     -0.130000
      9 C10         2.2780   -2.0620    3.4380 ca        1 37V     -0.074000
     10 C12         2.2350   -0.8570    2.7080 ca        1 37V      0.082400
     11 N13         1.6110   -0.6700    1.4650 nd        1 37V     -0.529100
     12 C19        -1.1710    1.4110   -0.4340 c         1 37V      0.675700
     13 O20        -1.1110    2.6160   -0.1190 o         1 37V     -0.597100
     14 C21        -2.4920    0.7430   -0.6240 ca        1 37V     -0.178600
     15 C22        -3.5210    1.1340    0.2450 ca        1 37V     -0.028000
     16 C24        -4.7940    0.5860    0.1550 ca        1 37V     -0.196000
     17 C26        -5.0600   -0.3810   -0.8320 ca        1 37V      0.183900
     18 F27        -6.2920   -0.9270   -0.9290 f         1 37V     -0.126900
     19 C28        -4.0520   -0.7860   -1.7240 ca        1 37V     -0.244000
     20 C30        -2.7770   -0.2180   -1.6120 ca        1 37V      0.177100
     21 O31        -1.7350   -0.6070   -2.4360 os        1 37V     -0.353900
     22 C32        -2.1090   -1.1250   -3.7160 c3        1 37V      0.031400
     23 C33        -0.9200   -0.9560   -4.6310 c         1 37V      0.630100
     24 O34        -0.8360   -1.4580   -5.7510 o         1 37V     -0.484000
     25 O36         0.1500   -0.2070   -4.2600 oh        1 37V     -0.567100
     26 H1          0.0200    0.1650   -3.3730 ho        1 37V      0.451000
     27 H2          1.2250    2.2750   -0.1370 h1        1 37V      0.086700
     28 H3          2.0120    0.8740   -1.0280 h1        1 37V      0.086700
     29 H4          4.0290    1.1610    4.8630 ha        1 37V      0.141000
     30 H5          4.0870   -0.9850    6.1310 ha        1 37V      0.138000
     31 H6          2.9840   -3.0170    5.2340 ha        1 37V      0.138000
     32 H7          1.7890   -2.9630    3.0400 ha        1 37V      0.151000
     33 H8         -3.3040    1.9070    1.0030 ha        1 37V      0.169000
     34 H9         -5.5930    0.9000    0.8420 ha        1 37V      0.162000
     35 H10        -4.2760   -1.5460   -2.4850 ha        1 37V      0.161000
     36 H11        -2.9860   -0.5700   -4.1420 h1        1 37V      0.089200
     37 H12        -2.3520   -2.2160   -3.6110 h1        1 37V      0.089200
     38 H121       -0.1180   -0.3240   -0.7240 hn        1 37V      0.327500
@<TRIPOS>BOND
     1    1    2 1   
     2    1   12 1   
     3    1   38 1   
     4    2    3 1   
     5    2   27 1   
     6    2   28 1   
     7    3    4 1   
     8    3   11 2   
     9    4    5 1   
    10    5    6 ar  
    11    5   10 ar  
    12    6    7 ar  
    13    6   29 1   
    14    7    8 ar  
    15    7   30 1   
    16    8    9 ar  
    17    8   31 1   
    18    9   10 ar  
    19    9   32 1   
    20   10   11 1   
    21   12   13 2   
    22   12   14 1   
    23   14   15 ar  
    24   14   20 ar  
    25   15   16 ar  
    26   15   33 1   
    27   16   17 ar  
    28   16   34 1   
    29   17   18 1   
    30   17   19 ar  
    31   19   20 ar  
    32   19   35 1   
    33   20   21 1   
    34   21   22 1   
    35   22   23 1   
    36   22   36 1   
    37   22   37 1   
    38   23   24 2   
    39   23   25 1   
    40   25   26 1   
@<TRIPOS>SUBSTRUCTURE
     1 37V         1 TEMP              0 ****  ****    0 ROOT
