@<TRIPOS>MOLECULE
37W
   48    60     1     0     0
SMALL
bcc


@<TRIPOS>ATOM
      1 C10         0.0000    0.0000    0.0000 c2        1 37W      0.302000
      2 C02        -0.1980    0.0100    6.4670 DU        1 37W     -0.198000
      3 C03        -0.5690   -1.0800    5.7010 c3        1 37W     -0.501000
      4 C04        -0.3260   -1.0880    4.3420 c2        1 37W     -0.199000
      5 C05         0.2940    0.0070    3.7430 c3        1 37W     -0.063000
      6 C06         0.5570    0.0060    2.2840 c2        1 37W     -0.053000
      7 C07         1.7850    0.0000    1.7530 c3        1 37W     -0.272000
      8 C08         3.0640    0.0010    2.5500 c3        1 37W     -0.179000
      9 S09         1.7030    0.0000    0.0000 ss        1 37W      0.276000
     10 N11        -0.7850   -0.0060   -1.1420 n7        1 37W     -0.577000
     11 C12        -0.2050   -0.0060   -2.3590 c3        1 37W      0.349000
     12 O13         1.0040   -0.0000   -2.4540 o         1 37W     -0.337000
     13 C14        -1.0580   -0.0120   -3.6010 DU        1 37W     -0.368000
     14 C15        -0.1580   -0.0090   -4.8390 DU        1 37W     -0.207000
     15 C16        -1.0250   -0.0160   -6.1000 c3        1 37W     -0.135000
     16 C17        -0.1380   -0.0130   -7.3180 c2        1 37W      0.385000
     17 O18        -0.6830   -0.0180   -8.5450 o         1 37W     -0.452000
     18 O19         1.0640   -0.0070   -7.1910 o         1 37W     -0.452000
     19 C20        -0.4910   -0.0000    1.2770 c2        1 37W     -0.423000
     20 C21        -1.9210   -0.0060    1.5960 c2        1 37W      0.173000
     21 N22        -2.5830    1.1580    1.7410 nz        1 37W      0.511000
     22 O23        -2.5100   -1.0630    1.7310 o         1 37W     -0.212000
     23 C24         0.6660    1.1040    4.5190 c2        1 37W     -0.114000
     24 C25         0.4120    1.1010    5.8760 c2        1 37W     -0.300000
     25 C26        -0.4660    0.0110    7.9500 c3        1 37W     -0.437000
     26 H1          0.4840    1.3800    7.2110 DU        1 37W      0.034000
     27 H2          0.8020    1.3200    7.2030 DU        1 37W      0.034000
     28 H3          0.4870    1.6370    7.5210 DU        1 37W      0.034000
     29 H4         -0.7350   -0.9100    6.7580 DU        1 37W      0.442000
     30 H5         -0.6940   -1.5160    5.2670 DU        1 37W      0.353000
     31 H6          2.1520   -0.4990    2.8550 DU        1 37W      0.185000
     32 H7          3.8920   -0.2660    1.9050 hc        1 37W      0.091500
     33 H8          3.2310    0.9890    2.9630 hc        1 37W      0.091500
     34 H9         -0.1400   -0.1410   -0.3890 hn        1 37W     -0.059000
     35 H10        -1.3570   -0.0220   -2.5600 DU        1 37W      0.270000
     36 H11        -1.6800   -0.8990   -3.6090 ha        1 37W      0.133000
     37 H12        -0.9290    0.4350   -4.2210 DU        1 37W      0.208000
     38 H13         0.4720   -0.8910   -4.8290 ha        1 37W      0.180000
     39 H14        -0.2750    0.4360   -5.4620 DU        1 37W      0.175000
     40 H15        -1.6450   -0.9040   -6.1070 hc        1 37W      0.074000
     41 H17        -2.4660    1.1220    0.7480 hn        1 37W      0.117667
     42 H18        -3.5580    1.0450    1.9360 hn        1 37W      0.117667
     43 H19        -0.0400    1.2640    3.7140 DU        1 37W      0.211000
     44 H20        -0.0120    0.3130    7.0140 DU        1 37W      0.288000
     45 H21         0.2900    0.0470    8.7250 hc        1 37W      0.089000
     46 H22        -0.7150   -1.0210    7.7370 hc        1 37W      0.089000
     47 H223       -2.3990    1.0670    2.7200 hn        1 37W      0.117667
     48 C01         0.8080    2.2880    6.7170 c3        1 37W      0.211000
@<TRIPOS>BOND
     1    1    9 1   
     2    1   10 1   
     3    1   19 1   
     4    2    3 1   
     5    2   24 1   
     6    2   25 1   
     7    2   29 1   
     8    2   44 1   
     9    3    4 1   
    10    3   29 1   
    11    3   30 1   
    12    4    5 1   
    13    4   30 1   
    14    5    6 1   
    15    5   23 1   
    16    5   43 1   
    17    6    7 1   
    18    6   19 1   
    19    7    8 1   
    20    7    9 1   
    21    7   31 1   
    22    8   31 1   
    23    8   32 1   
    24    8   33 1   
    25   10   11 1   
    26   10   34 1   
    27   11   12 1   
    28   11   13 1   
    29   11   35 1   
    30   13   14 1   
    31   13   35 1   
    32   13   36 1   
    33   13   37 1   
    34   14   15 1   
    35   14   37 1   
    36   14   38 1   
    37   14   39 1   
    38   15   16 1   
    39   15   39 1   
    40   15   40 1   
    41   16   17 1   
    42   16   18 1   
    43   19   20 1   
    44   20   21 1   
    45   20   22 1   
    46   21   41 1   
    47   21   42 1   
    48   21   47 1   
    49   23   24 1   
    50   23   43 1   
    51   24   48 1   
    52   25   44 1   
    53   25   45 1   
    54   25   46 1   
    55   26   27 1   
    56   26   28 1   
    57   26   48 1   
    58   27   28 1   
    59   27   48 1   
    60   28   48 1   
@<TRIPOS>SUBSTRUCTURE
     1 37W         1 TEMP              0 ****  ****    0 ROOT
