@<TRIPOS>MOLECULE
37W
   48    49     1     0     0
SMALL
bcc


@<TRIPOS>ATOM
      1 C10         0.3620   -0.8110   -0.1160 cc        1 37W      0.090500
      2 C02        -0.5920    0.6960    6.1470 ca        1 37W     -0.075300
      3 C03        -1.3120   -0.3040    5.4870 ca        1 37W     -0.130000
      4 C04        -0.9640   -0.7040    4.1990 ca        1 37W     -0.113000
      5 C05         0.1220   -0.1030    3.5490 ca        1 37W     -0.031000
      6 C06         0.5090   -0.5280    2.2100 cd        1 37W     -0.026000
      7 C07         1.6340   -1.2880    1.9360 cc        1 37W     -0.154400
      8 C08         2.6100   -1.7720    2.9180 c3        1 37W     -0.018800
      9 S09         1.7760   -1.6420    0.3090 ss        1 37W      0.118200
     10 N11        -0.1230   -0.6900   -1.4060 n         1 37W     -0.427100
     11 C12         0.3990   -1.3860   -2.4870 c         1 37W      0.655100
     12 O13         1.4050   -2.1150   -2.3640 o         1 37W     -0.603100
     13 C14        -0.2950   -1.2070   -3.8240 c3        1 37W     -0.145400
     14 C15         0.2500    0.0100   -4.5500 c3        1 37W     -0.073400
     15 C16        -0.8410    0.7810   -5.2630 c3        1 37W     -0.131400
     16 C17        -1.7400    1.4800   -4.2940 c         1 37W      0.630100
     17 O18        -1.7430    1.4400   -3.0600 o         1 37W     -0.549000
     18 O19        -2.6820    2.2680   -4.8840 oh        1 37W     -0.607100
     19 C20        -0.2380   -0.2420    1.0200 cd        1 37W     -0.232600
     20 C21        -1.4930    0.5300    0.9520 c         1 37W      0.699700
     21 N22        -1.6680    1.5830    1.8160 n         1 37W     -0.661000
     22 O23        -2.3840    0.2770    0.1060 o         1 37W     -0.643100
     23 C24         0.8480    0.8970    4.2070 ca        1 37W     -0.123000
     24 C25         0.4990    1.3020    5.4990 ca        1 37W     -0.083300
     25 C26        -0.9730    1.1110    7.5170 c3        1 37W     -0.053800
     26 H1          0.6100    3.2180    6.4550 hc        1 37W      0.044700
     27 H2          1.7320    1.9620    7.1220 hc        1 37W      0.044700
     28 H3          2.0990    2.7490    5.5280 hc        1 37W      0.044700
     29 H4         -2.1650   -0.7840    5.9910 ha        1 37W      0.134000
     30 H5         -1.5380   -1.4930    3.6910 ha        1 37W      0.144000
     31 H6          3.5630   -2.0830    2.4210 hc        1 37W      0.047367
     32 H7          2.8430   -0.9700    3.6640 hc        1 37W      0.047367
     33 H8          2.2010   -2.6530    3.4760 hc        1 37W      0.047367
     34 H9         -0.9560   -0.1370   -1.5290 hn        1 37W      0.378500
     35 H10        -0.1080   -2.1350   -4.4250 hc        1 37W      0.077200
     36 H11        -1.4040   -1.1120   -3.6750 hc        1 37W      0.077200
     37 H12         0.7650    0.6970   -3.8250 hc        1 37W      0.066200
     38 H13         1.0150   -0.3150   -5.3030 hc        1 37W      0.066200
     39 H14        -0.3880    1.5520   -5.9420 hc        1 37W      0.085700
     40 H15        -1.4670    0.0970   -5.8960 hc        1 37W      0.085700
     41 H17        -2.5320    2.0640    1.8150 hn        1 37W      0.313000
     42 H18        -1.0270    1.7490    2.5500 hn        1 37W      0.313000
     43 H19         1.7070    1.3650    3.7010 ha        1 37W      0.139000
     44 H20        -1.2370    2.1990    7.5320 hc        1 37W      0.044700
     45 H21        -1.8510    0.5280    7.8900 hc        1 37W      0.044700
     46 H22        -0.1170    0.9530    8.2210 hc        1 37W      0.044700
     47 H223       -3.2330    2.6840   -4.2010 ho        1 37W      0.450000
     48 C01         1.2780    2.3620    6.1800 c3        1 37W     -0.052800
@<TRIPOS>BOND
     1    1    9 1   
     2    1   10 1   
     3    1   19 2   
     4    2    3 ar  
     5    2   24 ar  
     6    2   25 1   
     7    3    4 ar  
     8    3   29 1   
     9    4    5 ar  
    10    4   30 1   
    11    5    6 1   
    12    5   23 ar  
    13    6    7 2   
    14    6   19 1   
    15    7    8 1   
    16    7    9 1   
    17    8   31 1   
    18    8   32 1   
    19    8   33 1   
    20   10   11 1   
    21   10   34 1   
    22   11   12 2   
    23   11   13 1   
    24   13   14 1   
    25   13   35 1   
    26   13   36 1   
    27   14   15 1   
    28   14   37 1   
    29   14   38 1   
    30   15   16 1   
    31   15   39 1   
    32   15   40 1   
    33   16   17 2   
    34   16   18 1   
    35   18   47 1   
    36   19   20 1   
    37   20   21 1   
    38   20   22 2   
    39   21   41 1   
    40   21   42 1   
    41   23   24 ar  
    42   23   43 1   
    43   24   48 1   
    44   25   44 1   
    45   25   45 1   
    46   25   46 1   
    47   26   48 1   
    48   27   48 1   
    49   28   48 1   
@<TRIPOS>SUBSTRUCTURE
     1 37W         1 TEMP              0 ****  ****    0 ROOT
