@<TRIPOS>MOLECULE
37Z
   35    34     1     0     0
SMALL
bcc


@<TRIPOS>ATOM
      1 N01        -0.1160    0.0000   -0.0120 n4        1 37Z     -0.837600
      2 C02         1.3730   -0.0010    0.0290 c3        1 37Z      0.100800
      3 C03         1.9450    0.0000    1.4460 c3        1 37Z     -0.106400
      4 C04         3.4650   -0.0010    1.3770 c3        1 37Z     -0.107400
      5 C05         4.0440    0.0000    2.7920 c3        1 37Z      0.105800
      6 N06         5.5430   -0.0010    2.8040 n4        1 37Z     -0.764000
      7 C07         6.0910    0.0010    4.1990 c3        1 37Z      0.105800
      8 C08         7.6200   -0.0010    4.2340 c3        1 37Z     -0.107400
      9 C09         8.0990    0.0020    5.6770 c3        1 37Z     -0.106400
     10 C10         9.6270    0.0000    5.7030 c3        1 37Z      0.100800
     11 N11        10.1990    0.0030    7.0800 n4        1 37Z     -0.837600
     12 H011       -0.4340   -0.0000   -0.9930 hn        1 37Z      0.477467
     13 HN01       -0.4940    0.8350    0.4540 hn        1 37Z      0.477467
     14 H021        1.7280   -0.9180   -0.5290 hx        1 37Z      0.124700
     15 H022        1.7290    0.9160   -0.5300 hx        1 37Z      0.124700
     16 H031        1.5920   -0.9070    2.0080 hc        1 37Z      0.085700
     17 H032        1.5930    0.9090    2.0060 hc        1 37Z      0.085700
     18 H042        3.8140    0.9060    0.8120 hc        1 37Z      0.085700
     19 H041        3.8120   -0.9100    0.8140 hc        1 37Z      0.085700
     20 H1          3.6970    0.9180    3.3500 hx        1 37Z      0.119700
     21 H2          3.6950   -0.9160    3.3520 hx        1 37Z      0.119700
     22 H3          5.8860   -0.8330    2.3060 hn        1 37Z      0.461800
     23 H071        5.6950    0.9190    4.7230 hx        1 37Z      0.119700
     24 H072        5.6920   -0.9150    4.7260 hx        1 37Z      0.119700
     25 H081        8.0220    0.9060    3.7040 hc        1 37Z      0.085700
     26 H082        8.0200   -0.9100    3.7090 hc        1 37Z      0.085700
     27 H091        7.7000   -0.9040    6.2090 hc        1 37Z      0.085700
     28 H092        7.7030    0.9120    6.2050 hc        1 37Z      0.085700
     29 H101       10.0230    0.9160    5.1700 hx        1 37Z      0.124700
     30 H102       10.0200   -0.9190    5.1750 hx        1 37Z      0.124700
     31 HN11       11.2280    0.0020    7.0250 hn        1 37Z      0.477467
     32 H112        9.9000    0.8390    7.5970 hn        1 37Z      0.477467
     33 H013       -0.4950   -0.8330    0.4550 hn        1 37Z      0.477467
     34 H062        5.8870    0.8280    2.3030 hn        1 37Z      0.461800
     35 H113        9.8980   -0.8290    7.6010 hn        1 37Z      0.477467
@<TRIPOS>BOND
     1    1    2 1   
     2    1   12 1   
     3    1   13 1   
     4    1   33 1   
     5    2    3 1   
     6    2   14 1   
     7    2   15 1   
     8    3    4 1   
     9    3   16 1   
    10    3   17 1   
    11    4    5 1   
    12    4   18 1   
    13    4   19 1   
    14    5    6 1   
    15    5   20 1   
    16    5   21 1   
    17    6    7 1   
    18    6   22 1   
    19    6   34 1   
    20    7    8 1   
    21    7   23 1   
    22    7   24 1   
    23    8    9 1   
    24    8   25 1   
    25    8   26 1   
    26    9   10 1   
    27    9   27 1   
    28    9   28 1   
    29   10   11 1   
    30   10   29 1   
    31   10   30 1   
    32   11   31 1   
    33   11   32 1   
    34   11   35 1   
@<TRIPOS>SUBSTRUCTURE
     1 37Z         1 TEMP              0 ****  ****    0 ROOT
