@<TRIPOS>MOLECULE
380
   59    61     1     0     0
SMALL
bcc


@<TRIPOS>ATOM
      1 C1         -0.5080   -1.0190    0.2900 ce        1 380      0.629800
      2 N1         -1.6720   -1.7220    0.9970 n4        1 380     -0.888600
      3 N2          0.6260   -0.7900    0.8010 n2        1 380     -0.665100
      4 C2         -0.8860   -0.6480   -1.0940 ca        1 380     -0.241900
      5 C3         -1.9310    0.2550   -1.3320 ca        1 380     -0.044500
      6 C4         -2.2170    0.6650   -2.6260 ca        1 380     -0.168500
      7 C5         -1.4540    0.1830   -3.7210 ca        1 380      0.174600
      8 N3         -1.7980    0.5680   -5.0310 nh        1 380     -0.740600
      9 C11        -0.7440    0.7290   -6.0100 c3        1 380      0.214800
     10 C22        -0.7050   -0.5310   -6.9150 c         1 380      0.526100
     11 N24        -1.6350   -0.5440   -8.0870 n4        1 380     -0.670800
     12 C25        -1.4200   -1.6990   -9.0280 c3        1 380      0.179100
     13 C26        -2.3670   -1.6260  -10.1720 ca        1 380     -0.198300
     14 C27        -2.0060   -0.9350  -11.3350 ca        1 380     -0.100000
     15 C28        -2.8720   -0.9140  -12.4270 ca        1 380     -0.117500
     16 C29        -4.0970   -1.5810  -12.3620 ca        1 380     -0.072000
     17 C30        -4.4580   -2.2710  -11.2020 ca        1 380     -0.117500
     18 C31        -3.5960   -2.2950  -10.1080 ca        1 380     -0.100000
     19 O23         0.0310   -1.4890   -6.7420 o         1 380     -0.417100
     20 C12        -0.8580    1.9600   -6.8650 ca        1 380     -0.207300
     21 C17         0.3150    2.6900   -7.1270 ca        1 380     -0.170000
     22 C19         0.2570    3.8510   -7.8920 ca        1 380      0.131100
     23 O2          1.3290    4.6350   -8.2270 os        1 380     -0.278900
     24 C24         2.5890    4.2820   -7.6570 c3        1 380      0.102700
     25 C20        -1.0020    4.3030   -8.4050 ca        1 380      0.164100
     26 O3         -0.9480    5.4490   -9.1430 os        1 380     -0.275900
     27 C32        -2.1930    5.9760   -9.6100 c3        1 380      0.100700
     28 C16        -2.0820    2.4020   -7.3650 ca        1 380     -0.146000
     29 C18        -2.1570    3.5670   -8.1330 ca        1 380     -0.190000
     30 C6         -0.4100   -0.7340   -3.4640 ca        1 380     -0.168500
     31 C7         -0.1270   -1.1370   -2.1630 ca        1 380     -0.044500
     32 H1N1       -2.5240   -1.1670    0.8670 hn        1 380      0.460467
     33 H1N2       -1.5080   -1.8490    1.9990 hn        1 380      0.460467
     34 HN2         0.8980   -1.0470    1.7250 hn        1 380      0.473400
     35 H3         -2.5130    0.6820   -0.4990 ha        1 380      0.156000
     36 H4         -3.0370    1.3850   -2.7890 ha        1 380      0.165000
     37 HA         -2.4790    1.3050   -5.0620 hn        1 380      0.435800
     38 H11         0.2770    0.7270   -5.5050 h1        1 380      0.120700
     39 H24        -2.6000   -0.5710   -7.7330 hn        1 380      0.468300
     40 H251       -0.3480   -1.6520   -9.3790 hx        1 380      0.113700
     41 H252       -1.5590   -2.6500   -8.4370 hx        1 380      0.113700
     42 H27        -1.0310   -0.4270  -11.4010 ha        1 380      0.138000
     43 H28        -2.5830   -0.3790  -13.3470 ha        1 380      0.163000
     44 H29        -4.7770   -1.5700  -13.2300 ha        1 380      0.166000
     45 H30        -5.4200   -2.8060  -11.1570 ha        1 380      0.163000
     46 H31        -3.8750   -2.8600   -9.2050 ha        1 380      0.138000
     47 H17         1.2790    2.3510   -6.7170 ha        1 380      0.154000
     48 H241        2.5390    4.3060   -6.5420 h1        1 380      0.059700
     49 H242        2.9160    3.2780   -8.0210 h1        1 380      0.059700
     50 H243        3.2690    5.0850   -8.0420 h1        1 380      0.059700
     51 H321       -1.8790    6.9120  -10.1430 h1        1 380      0.064033
     52 H322       -2.6780    5.2610  -10.3160 h1        1 380      0.064033
     53 H323       -2.8660    6.2130   -8.7520 h1        1 380      0.064033
     54 H16        -3.0180    1.8620   -7.1520 ha        1 380      0.125000
     55 H18        -3.1340    3.9070   -8.5100 ha        1 380      0.166000
     56 H6          0.1960   -1.1460   -4.2890 ha        1 380      0.165000
     57 H7          0.7090   -1.8340   -1.9830 ha        1 380      0.156000
     58 H13        -1.8140   -2.6400    0.5640 hn        1 380      0.460467
     59 H244       -1.5210    0.3420   -8.6050 hn        1 380      0.468300
@<TRIPOS>BOND
     1    1    2 1   
     2    1    3 2   
     3    1    4 1   
     4    2   32 1   
     5    2   33 1   
     6    2   58 1   
     7    3   34 1   
     8    4    5 ar  
     9    4   31 ar  
    10    5    6 ar  
    11    5   35 1   
    12    6    7 ar  
    13    6   36 1   
    14    7    8 1   
    15    7   30 ar  
    16    8    9 1   
    17    8   37 1   
    18    9   10 1   
    19    9   20 1   
    20    9   38 1   
    21   10   11 1   
    22   10   19 2   
    23   11   12 1   
    24   11   39 1   
    25   11   59 1   
    26   12   13 1   
    27   12   40 1   
    28   12   41 1   
    29   13   14 ar  
    30   13   18 ar  
    31   14   15 ar  
    32   14   42 1   
    33   15   16 ar  
    34   15   43 1   
    35   16   17 ar  
    36   16   44 1   
    37   17   18 ar  
    38   17   45 1   
    39   18   46 1   
    40   20   21 ar  
    41   20   28 ar  
    42   21   22 ar  
    43   21   47 1   
    44   22   23 1   
    45   22   25 ar  
    46   23   24 1   
    47   24   48 1   
    48   24   49 1   
    49   24   50 1   
    50   25   26 1   
    51   25   29 ar  
    52   26   27 1   
    53   27   51 1   
    54   27   52 1   
    55   27   53 1   
    56   28   29 ar  
    57   28   54 1   
    58   29   55 1   
    59   30   31 ar  
    60   30   56 1   
    61   31   57 1   
@<TRIPOS>SUBSTRUCTURE
     1 380         1 TEMP              0 ****  ****    0 ROOT
