@<TRIPOS>MOLECULE
380
   57    59     1     0     0
SMALL
bcc


@<TRIPOS>ATOM
      1 C1          6.5700    0.4790    0.7730 ce        1 380      0.660800
      2 N1          6.9760    1.2560    1.8790 nh        1 380     -0.962800
      3 N2          7.2930   -0.3690    0.1040 n2        1 380     -0.832100
      4 C2          5.1770    0.7560    0.3050 ca        1 380     -0.177900
      5 C3          4.9390    1.0820   -1.0340 ca        1 380     -0.065500
      6 C4          3.6490    1.3400   -1.4770 ca        1 380     -0.190000
      7 C5          2.5500    1.2820   -0.5820 ca        1 380      0.169600
      8 N3          1.2820    1.6690   -1.0380 nh        1 380     -0.721600
      9 C11         0.0870    1.2360   -0.3450 c3        1 380      0.194800
     10 C22        -1.1550    1.8770   -1.0310 c         1 380      0.660100
     11 N24        -2.1360    2.3680   -0.1960 n         1 380     -0.543900
     12 C25        -3.4070    2.8220   -0.7010 c3        1 380      0.124300
     13 C26        -4.5650    1.9430   -0.3220 ca        1 380     -0.122300
     14 C27        -5.0540    1.9580    0.9890 ca        1 380     -0.116000
     15 C28        -6.1410    1.1590    1.3400 ca        1 380     -0.130500
     16 C29        -6.7430    0.3400    0.3840 ca        1 380     -0.121000
     17 C30        -6.2570    0.3220   -0.9230 ca        1 380     -0.130500
     18 C31        -5.1680    1.1200   -1.2770 ca        1 380     -0.116000
     19 O23        -1.2280    1.9660   -2.2720 o         1 380     -0.610100
     20 C12        -0.1610   -0.2530   -0.3130 ca        1 380     -0.140300
     21 C17        -0.2030   -0.9210    0.9190 ca        1 380     -0.163000
     22 C19        -0.4290   -2.2960    0.9560 ca        1 380      0.100100
     23 O2         -0.5050   -3.0530    2.1080 os        1 380     -0.301900
     24 C24        -0.2150   -2.3710    3.3220 c3        1 380      0.110700
     25 C20        -0.6120   -3.0170   -0.2570 ca        1 380      0.118100
     26 O3         -0.8290   -4.3700   -0.1100 os        1 380     -0.301900
     27 C32        -0.9670   -5.1130   -1.3170 c3        1 380      0.109700
     28 C16        -0.3460   -0.9610   -1.4980 ca        1 380     -0.100000
     29 C18        -0.5700   -2.3390   -1.4750 ca        1 380     -0.180000
     30 C6          2.8050    0.9270    0.7620 ca        1 380     -0.190000
     31 C7          4.1020    0.6740    1.1930 ca        1 380     -0.065500
     32 H1N1        6.2490    1.6950    2.3910 hn        1 380      0.397800
     33 H1N2        7.7180    0.8990    2.4350 hn        1 380      0.397800
     34 HN2         8.2190   -0.5260    0.4420 hn        1 380      0.379400
     35 H3          5.7790    1.1270   -1.7440 ha        1 380      0.137500
     36 H4          3.4870    1.5970   -2.5350 ha        1 380      0.133000
     37 HA          1.1820    1.6380   -2.0350 hn        1 380      0.420800
     38 H11         0.1720    1.6190    0.7170 h1        1 380      0.074700
     39 H24        -2.1150    2.1010    0.7610 hn        1 380      0.306500
     40 H251       -3.5880    3.8550   -0.2780 h1        1 380      0.072700
     41 H252       -3.3430    2.9110   -1.8240 h1        1 380      0.072700
     42 H27        -4.5840    2.6090    1.7400 ha        1 380      0.134500
     43 H28        -6.5230    1.1740    2.3700 ha        1 380      0.133500
     44 H29        -7.6000   -0.2900    0.6610 ha        1 380      0.133000
     45 H30        -6.7300   -0.3230   -1.6780 ha        1 380      0.133500
     46 H31        -4.7830    1.1010   -2.3080 ha        1 380      0.134500
     47 H17        -0.0520   -0.3580    1.8510 ha        1 380      0.135000
     48 H241       -0.2840   -3.1790    4.0940 h1        1 380      0.043367
     49 H242        0.8120   -1.9340    3.2990 h1        1 380      0.043367
     50 H243       -0.9750   -1.5760    3.5190 h1        1 380      0.043367
     51 H321       -0.0460   -5.0280   -1.9430 h1        1 380      0.046033
     52 H322       -1.1060   -6.1640   -0.9570 h1        1 380      0.046033
     53 H323       -1.8630   -4.7710   -1.8900 h1        1 380      0.046033
     54 H16        -0.3320   -0.4260   -2.4620 ha        1 380      0.153000
     55 H18        -0.7110   -2.8790   -2.4220 ha        1 380      0.145000
     56 H6          1.9790    0.8350    1.4820 ha        1 380      0.133000
     57 H7          4.2690    0.3890    2.2430 ha        1 380      0.137500
@<TRIPOS>BOND
     1    1    2 1   
     2    1    3 2   
     3    1    4 1   
     4    2   32 1   
     5    2   33 1   
     6    3   34 1   
     7    4    5 ar  
     8    4   31 ar  
     9    5    6 ar  
    10    5   35 1   
    11    6    7 ar  
    12    6   36 1   
    13    7    8 1   
    14    7   30 ar  
    15    8    9 1   
    16    8   37 1   
    17    9   10 1   
    18    9   20 1   
    19    9   38 1   
    20   10   11 1   
    21   10   19 2   
    22   11   12 1   
    23   11   39 1   
    24   12   13 1   
    25   12   40 1   
    26   12   41 1   
    27   13   14 ar  
    28   13   18 ar  
    29   14   15 ar  
    30   14   42 1   
    31   15   16 ar  
    32   15   43 1   
    33   16   17 ar  
    34   16   44 1   
    35   17   18 ar  
    36   17   45 1   
    37   18   46 1   
    38   20   21 ar  
    39   20   28 ar  
    40   21   22 ar  
    41   21   47 1   
    42   22   23 1   
    43   22   25 ar  
    44   23   24 1   
    45   24   48 1   
    46   24   49 1   
    47   24   50 1   
    48   25   26 1   
    49   25   29 ar  
    50   26   27 1   
    51   27   51 1   
    52   27   52 1   
    53   27   53 1   
    54   28   29 ar  
    55   28   54 1   
    56   29   55 1   
    57   30   31 ar  
    58   30   56 1   
    59   31   57 1   
@<TRIPOS>SUBSTRUCTURE
     1 380         1 TEMP              0 ****  ****    0 ROOT
