@<TRIPOS>MOLECULE
380
   60    62     1     0     0
SMALL
bcc


@<TRIPOS>ATOM
      1 C1         -0.4090   -1.1550    0.3550 ce        1 380      0.587800
      2 N1          0.0720   -2.5960    0.3920 n4        1 380     -0.876600
      3 N2         -0.5310   -0.3830    1.3500 n2        1 380     -0.633100
      4 C2         -0.7460   -0.6940   -1.0260 ca        1 380     -0.137900
      5 C3         -1.7920   -1.2820   -1.7460 ca        1 380     -0.062500
      6 C4         -2.2160   -0.7210   -2.9510 ca        1 380     -0.090000
      7 C5         -1.5930    0.4470   -3.4300 ca        1 380     -0.027400
      8 N3         -2.1470    1.1440   -4.5970 n4        1 380     -0.647400
      9 C11        -1.5240    0.7810   -5.9420 c3        1 380      0.150800
     10 C22        -2.3600   -0.2950   -6.6590 c         1 380      0.514100
     11 N24        -2.1170   -0.4440   -8.1130 n4        1 380     -0.663800
     12 C25        -3.0780   -1.4090   -8.8020 c3        1 380      0.202100
     13 C26        -2.7290   -1.5100  -10.2360 ca        1 380     -0.226300
     14 C27        -1.8110   -2.4800  -10.6670 ca        1 380     -0.091000
     15 C28        -1.5450   -2.6290  -12.0250 ca        1 380     -0.114000
     16 C29        -2.1920   -1.8150  -12.9600 ca        1 380     -0.045000
     17 C30        -3.1060   -0.8470  -12.5330 ca        1 380     -0.114000
     18 C31        -3.3750   -0.6910  -11.1750 ca        1 380     -0.091000
     19 O23        -3.1810   -1.0100   -6.0950 o         1 380     -0.414100
     20 C12        -1.3990    2.0020   -6.7810 ca        1 380     -0.308300
     21 C17        -0.1130    2.5210   -7.0520 ca        1 380     -0.175000
     22 C19         0.0200    3.6800   -7.8010 ca        1 380      0.132100
     23 O2          1.1960    4.2770   -8.1510 os        1 380     -0.264900
     24 C24         2.4050    3.6730   -7.6870 c3        1 380      0.100700
     25 C20        -1.1550    4.3630   -8.2850 ca        1 380      0.221100
     26 O3         -0.9120    5.4880   -8.9900 os        1 380     -0.249900
     27 C32        -2.0390    6.2370   -9.4730 c3        1 380      0.094700
     28 C16        -2.5380    2.6620   -7.2560 ca        1 380     -0.105000
     29 C18        -2.4220    3.8290   -8.0020 ca        1 380     -0.204000
     30 C6         -0.5070    1.0090   -2.7350 ca        1 380     -0.090000
     31 C7         -0.0900    0.4360   -1.5320 ca        1 380     -0.062500
     32 H1N1        0.0580   -2.9810    1.3460 hn        1 380      0.471800
     33 H1N2       -0.5270   -3.1790   -0.2010 hn        1 380      0.471800
     34 HN2        -0.3330   -0.6210    2.3010 hn        1 380      0.499400
     35 H3         -2.3320   -2.1640   -1.3580 ha        1 380      0.188000
     36 H4         -3.0580   -1.1900   -3.4950 ha        1 380      0.187000
     37 HA         -2.0050    2.1640   -4.4700 hn        1 380      0.482300
     38 H11        -0.5040    0.3300   -5.7260 hx        1 380      0.147700
     39 H24        -1.1550   -0.7770   -8.2690 hn        1 380      0.480800
     40 H251       -4.1190   -1.0030   -8.6470 hx        1 380      0.115700
     41 H252       -2.9850   -2.4010   -8.2740 hx        1 380      0.115700
     42 H27        -1.3220   -3.1460   -9.9400 ha        1 380      0.136500
     43 H28        -0.8340   -3.4010  -12.3670 ha        1 380      0.175000
     44 H29        -1.9880   -1.9440  -14.0380 ha        1 380      0.181000
     45 H30        -3.6250   -0.2150  -13.2740 ha        1 380      0.175000
     46 H31        -4.1170    0.0530  -10.8490 ha        1 380      0.136500
     47 H17         0.7840    2.0080   -6.6730 ha        1 380      0.152000
     48 H241        3.1940    4.3560   -8.1030 h1        1 380      0.066367
     49 H242        2.5130    2.6430   -8.1020 h1        1 380      0.066367
     50 H243        2.4360    3.6650   -6.5710 h1        1 380      0.066367
     51 H321       -2.6660    6.5870   -8.6180 h1        1 380      0.081367
     52 H322       -2.6300    5.6230  -10.1930 h1        1 380      0.081367
     53 H323       -1.5440    7.1020   -9.9910 h1        1 380      0.081367
     54 H16        -3.5450    2.2730   -7.0360 ha        1 380      0.132000
     55 H18        -3.3290    4.3430   -8.3640 ha        1 380      0.187000
     56 H6          0.0060    1.9200   -3.0940 ha        1 380      0.187000
     57 H7          0.7370    0.9100   -0.9700 ha        1 380      0.188000
     58 H13         1.0350   -2.6430    0.0370 hn        1 380      0.471800
     59 H32        -3.1620    0.9640   -4.6280 hn        1 380      0.482300
     60 H244       -2.1950    0.4880   -8.5590 hn        1 380      0.480800
@<TRIPOS>BOND
     1    1    2 1   
     2    1    3 2   
     3    1    4 1   
     4    2   32 1   
     5    2   33 1   
     6    2   58 1   
     7    3   34 1   
     8    4    5 ar  
     9    4   31 ar  
    10    5    6 ar  
    11    5   35 1   
    12    6    7 ar  
    13    6   36 1   
    14    7    8 1   
    15    7   30 ar  
    16    8    9 1   
    17    8   37 1   
    18    8   59 1   
    19    9   10 1   
    20    9   20 1   
    21    9   38 1   
    22   10   11 1   
    23   10   19 2   
    24   11   12 1   
    25   11   39 1   
    26   11   60 1   
    27   12   13 1   
    28   12   40 1   
    29   12   41 1   
    30   13   14 ar  
    31   13   18 ar  
    32   14   15 ar  
    33   14   42 1   
    34   15   16 ar  
    35   15   43 1   
    36   16   17 ar  
    37   16   44 1   
    38   17   18 ar  
    39   17   45 1   
    40   18   46 1   
    41   20   21 ar  
    42   20   28 ar  
    43   21   22 ar  
    44   21   47 1   
    45   22   23 1   
    46   22   25 ar  
    47   23   24 1   
    48   24   48 1   
    49   24   49 1   
    50   24   50 1   
    51   25   26 1   
    52   25   29 ar  
    53   26   27 1   
    54   27   51 1   
    55   27   52 1   
    56   27   53 1   
    57   28   29 ar  
    58   28   54 1   
    59   29   55 1   
    60   30   31 ar  
    61   30   56 1   
    62   31   57 1   
@<TRIPOS>SUBSTRUCTURE
     1 380         1 TEMP              0 ****  ****    0 ROOT
