@<TRIPOS>MOLECULE
380
   59    61     1     0     0
SMALL
bcc


@<TRIPOS>ATOM
      1 C1         -0.4880   -1.2090    0.0620 ce        1 380      0.629800
      2 N1         -1.5550   -2.1530    0.6310 nz        1 380     -0.888600
      3 N2          0.5330   -0.8010    0.6860 n2        1 380     -0.665100
      4 C2         -0.8100   -0.8430   -1.3360 ca        1 380     -0.242900
      5 C3         -1.9810   -0.1360   -1.6390 ca        1 380     -0.044500
      6 C4         -2.2280    0.2820   -2.9390 ca        1 380     -0.169000
      7 C5         -1.2980    0.0040   -3.9750 ca        1 380      0.176600
      8 N3         -1.5950    0.3860   -5.2960 nu        1 380     -0.739600
      9 C11        -0.5140    0.7970   -6.1660 c3        1 380      0.222800
     10 C22        -0.1610   -0.3770   -7.1170 c         1 380      0.530100
     11 N24        -0.8570   -0.4640   -8.4380 ny        1 380     -0.675800
     12 C25        -2.0280   -1.4140   -8.3820 c3        1 380      0.188100
     13 C26        -2.6570   -1.5530   -9.7220 ca        1 380     -0.200300
     14 C27        -2.2290   -2.5640  -10.5920 ca        1 380     -0.098500
     15 C28        -2.8480   -2.7190  -11.8320 ca        1 380     -0.116500
     16 C29        -3.8910   -1.8690  -12.2050 ca        1 380     -0.069000
     17 C30        -4.3180   -0.8610  -11.3370 ca        1 380     -0.116500
     18 C31        -3.7030   -0.7010  -10.0970 ca        1 380     -0.098500
     19 O23         0.6720   -1.2370   -6.8750 o         1 380     -0.425100
     20 C12        -0.7740    2.0480   -6.9570 ca        1 380     -0.206300
     21 C17         0.2770    2.9750   -7.0800 ca        1 380     -0.172000
     22 C19         0.0790    4.1660   -7.7700 ca        1 380      0.132100
     23 O2          1.0250    5.1360   -7.9690 os        1 380     -0.278900
     24 C24         2.2900    4.9410   -7.3360 c3        1 380      0.102700
     25 C20        -1.2020    4.4490   -8.3480 ca        1 380      0.165100
     26 O3         -1.2900    5.6430   -9.0020 os        1 380     -0.274900
     27 C32        -2.5670    5.9940   -9.5400 c3        1 380      0.100700
     28 C16        -2.0180    2.3250   -7.5220 ca        1 380     -0.142000
     29 C18        -2.2330    3.5190   -8.2160 ca        1 380     -0.192000
     30 C6         -0.1260   -0.7190   -3.6530 ca        1 380     -0.169000
     31 C7          0.1150   -1.1290   -2.3470 ca        1 380     -0.044500
     32 H1N1       -2.4820   -1.7600    0.4410 hn        1 380      0.460467
     33 H1N2       -1.4810   -3.0570    0.1540 hn        1 380      0.460467
     34 HN2         0.7680   -1.0520    1.6220 hn        1 380      0.473400
     35 H3         -2.7010    0.1340   -0.8500 ha        1 380      0.156000
     36 H4         -3.1510    0.8460   -3.1520 ha        1 380      0.165500
     37 HA         -2.4040    0.9760   -5.3680 hn        1 380      0.435800
     38 H11         0.4450    0.9420   -5.5670 h1        1 380      0.118700
     39 H24        -0.2010   -0.8060   -9.1550 hn        1 380      0.468800
     40 H251       -2.7580   -1.0020   -7.6280 hx        1 380      0.105700
     41 H252       -1.6350   -2.4050   -8.0120 hx        1 380      0.105700
     42 H27        -1.4190   -3.2480  -10.2970 ha        1 380      0.136000
     43 H28        -2.5170   -3.5180  -12.5150 ha        1 380      0.164000
     44 H29        -4.3820   -1.9960  -13.1840 ha        1 380      0.168000
     45 H30        -5.1460   -0.1960  -11.6300 ha        1 380      0.164000
     46 H31        -4.0510    0.0850   -9.4100 ha        1 380      0.136000
     47 H17         1.2550    2.7650   -6.6190 ha        1 380      0.153000
     48 H241        2.8530    5.8700   -7.6170 h1        1 380      0.059700
     49 H242        2.7960    4.0340   -7.7440 h1        1 380      0.059700
     50 H243        2.1710    4.8700   -6.2290 h1        1 380      0.059700
     51 H321       -2.3780    7.0060   -9.9850 h1        1 380      0.063700
     52 H322       -3.3320    6.0530   -8.7280 h1        1 380      0.063700
     53 H323       -2.8720    5.2640  -10.3270 h1        1 380      0.063700
     54 H16        -2.8610    1.6230   -7.4250 ha        1 380      0.126000
     55 H18        -3.2260    3.7250   -8.6460 ha        1 380      0.165000
     56 H6          0.6130   -0.9720   -4.4330 ha        1 380      0.165500
     57 H7          1.0480   -1.6690   -2.1140 ha        1 380      0.156000
     58 H13        -1.4570   -2.3000    1.6390 hn        1 380      0.460467
     59 H244       -1.1880    0.4690   -8.7240 hn        1 380      0.468800
@<TRIPOS>BOND
     1    1    2 1   
     2    1    3 2   
     3    1    4 1   
     4    2   32 1   
     5    2   33 1   
     6    2   58 1   
     7    3   34 1   
     8    4    5 ar  
     9    4   31 ar  
    10    5    6 ar  
    11    5   35 1   
    12    6    7 ar  
    13    6   36 1   
    14    7    8 1   
    15    7   30 ar  
    16    8    9 1   
    17    8   37 1   
    18    9   10 1   
    19    9   20 1   
    20    9   38 1   
    21   10   11 1   
    22   10   19 2   
    23   11   12 1   
    24   11   39 1   
    25   11   59 1   
    26   12   13 1   
    27   12   40 1   
    28   12   41 1   
    29   13   14 ar  
    30   13   18 ar  
    31   14   15 ar  
    32   14   42 1   
    33   15   16 ar  
    34   15   43 1   
    35   16   17 ar  
    36   16   44 1   
    37   17   18 ar  
    38   17   45 1   
    39   18   46 1   
    40   20   21 ar  
    41   20   28 ar  
    42   21   22 ar  
    43   21   47 1   
    44   22   23 1   
    45   22   25 ar  
    46   23   24 1   
    47   24   48 1   
    48   24   49 1   
    49   24   50 1   
    50   25   26 1   
    51   25   29 ar  
    52   26   27 1   
    53   27   51 1   
    54   27   52 1   
    55   27   53 1   
    56   28   29 ar  
    57   28   54 1   
    58   29   55 1   
    59   30   31 ar  
    60   30   56 1   
    61   31   57 1   
@<TRIPOS>SUBSTRUCTURE
     1 380         1 TEMP              0 ****  ****    0 ROOT
