@<TRIPOS>MOLECULE
380
   57    51     1     0     0
SMALL
bcc


@<TRIPOS>ATOM
      1 C1          1.0860   -3.2860    4.8910 c1        1 380      0.136000
      2 N1          2.2780   -3.9280    5.0700 n2        1 380     -0.402000
      3 N2          0.0630   -3.5980    5.6280 n1        1 380     -0.300000
      4 C2          0.9560   -2.2030    3.8230 c2        1 380     -0.080000
      5 C3          0.7920   -2.5580    2.5050 c2        1 380     -0.097000
      6 C4          0.5300   -1.5720    1.5420 c1        1 380     -0.168000
      7 C5          0.4360   -0.2290    1.9220 c1        1 380      0.052000
      8 N3          0.0270    0.7570    0.9650 n3        1 380     -0.250000
      9 C11         0.6010    0.7530   -0.3430 c3        1 380      0.031000
     10 C22        -0.3920    0.1130   -1.3400 c2        1 380      0.264000
     11 N24        -0.2990   -1.2680   -1.6500 n         1 380     -0.355000
     12 C25        -1.3900   -1.9310   -2.3940 c3        1 380      0.005000
     13 C26        -1.8940   -3.1510   -1.5910 c2        1 380     -0.121000
     14 C27        -1.4370   -4.4190   -1.9190 c2        1 380     -0.122000
     15 C28        -1.9830   -5.5220   -1.3190 c1        1 380     -0.135000
     16 C29        -3.0040   -5.3740   -0.3730 c1        1 380     -0.125500
     17 C30        -3.4630   -4.1130   -0.0430 c1        1 380     -0.125500
     18 C31        -2.9130   -2.9980   -0.6470 c1        1 380     -0.111000
     19 O23        -1.2600    0.8050   -1.8760 o         1 380     -0.376000
     20 C12         0.8930    2.1460   -0.7650 c2        1 380     -0.106000
     21 C17        -0.1370    3.1140   -0.7780 c2        1 380     -0.093000
     22 C19         0.1440    4.4270   -1.2070 c1        1 380      0.031000
     23 O2         -0.8960    5.4200   -1.2150 o         1 380     -0.211000
     24 C24        -1.5150    5.5840   -2.4530 c3        1 380     -0.075000
     25 C20         1.4270    4.7630   -1.6140 c2        1 380      0.065000
     26 O3          1.7540    6.1360   -1.8920 os        1 380     -0.204000
     27 C32         2.4390    6.3260   -3.1350 c3        1 380     -0.078000
     28 C16         2.1710    2.4880   -1.1730 c1        1 380     -0.088000
     29 C18         2.4470    3.7910   -1.5980 c1        1 380     -0.196000
     30 C6          0.6010    0.1280    3.2530 c1        1 380     -0.176000
     31 C7          0.8600   -0.8430    4.2050 c1        1 380     -0.055000
     32 H1N1        2.3070   -4.7240    5.5560 hn        1 380      0.195000
     33 H1N2        3.0190   -3.6450    4.6160 hn        1 380      0.195000
     34 HN2         0.1420   -4.2580    6.2790 DU        1 380      0.136000
     35 H3          0.8610   -3.5260    2.2310 ha        1 380      0.127000
     36 H4          0.4120   -1.8280    0.5840 ha        1 380      0.132000
     37 HA         -0.7150    1.2970    1.1430 hn        1 380      0.203000
     38 H11         1.4370    0.2320   -0.3320 h1        1 380      0.114000
     39 H24         0.4800   -1.7290   -1.4660 hn        1 380      0.220000
     40 H251       -2.1400   -1.2880   -2.5310 h1        1 380      0.110000
     41 H252       -1.0640   -2.2250   -3.2460 h1        1 380      0.110000
     42 H27        -0.6960   -4.5310   -2.6040 ha        1 380      0.128000
     43 H28        -1.6520   -6.4340   -1.5560 ha        1 380      0.131000
     44 H29        -3.3870   -6.1560    0.0490 ha        1 380      0.136000
     45 H30        -4.2150   -4.0050    0.6540 ha        1 380      0.136000
     46 H31        -3.2300   -2.1230   -0.4190 ha        1 380      0.150000
     47 H17        -1.0830    2.8320   -0.6300 ha        1 380      0.168000
     48 H241       -2.2530    6.2250   -2.3670 h1        1 380      0.083333
     49 H242       -1.8530    4.7580   -2.7470 h1        1 380      0.083333
     50 H243       -0.8620    5.9220   -3.1060 h1        1 380      0.083333
     51 H321        2.4420    7.2670   -3.3610 h1        1 380      0.085333
     52 H322        2.0000    5.8450   -3.8080 h1        1 380      0.085333
     53 H323        3.3990    5.9940   -3.0490 h1        1 380      0.085333
     54 H16         2.8990    1.8020   -1.1630 ha        1 380      0.132000
     55 H18         3.3180    4.0180   -1.8760 ha        1 380      0.140000
     56 H6          0.5330    1.1110    3.5300 ha        1 380      0.143000
     57 H7          0.9760   -0.5890    5.1410 ha        1 380      0.152000
@<TRIPOS>BOND
     1    1    3 1   
     2    1    4 1   
     3    2   32 1   
     4    2   33 1   
     5    4    5 1   
     6    4   31 1   
     7    5    6 1   
     8    5   35 1   
     9    6   36 1   
    10    7    8 1   
    11    7   30 1   
    12    8    9 1   
    13    8   37 1   
    14    9   10 1   
    15    9   20 1   
    16    9   38 1   
    17   10   11 1   
    18   10   19 1   
    19   11   12 1   
    20   11   39 1   
    21   12   13 1   
    22   12   40 1   
    23   12   41 1   
    24   13   14 1   
    25   13   18 1   
    26   14   15 1   
    27   14   42 1   
    28   15   43 1   
    29   16   17 1   
    30   16   44 1   
    31   17   45 1   
    32   18   46 1   
    33   20   21 1   
    34   20   28 1   
    35   21   22 1   
    36   21   47 1   
    37   22   25 1   
    38   23   24 1   
    39   24   48 1   
    40   24   49 1   
    41   24   50 1   
    42   25   26 1   
    43   25   29 1   
    44   26   27 1   
    45   27   51 1   
    46   27   52 1   
    47   27   53 1   
    48   28   54 1   
    49   29   55 1   
    50   30   56 1   
    51   31   57 1   
@<TRIPOS>SUBSTRUCTURE
     1 380         1 TEMP              0 ****  ****    0 ROOT
