@<TRIPOS>MOLECULE
381
   36    35     1     0     0
SMALL
bcc


@<TRIPOS>ATOM
      1 O1         -1.9950    0.5390    0.8340 oh        1 381     -0.840000
      2 P          -0.4150    0.5390    0.8340 p3        1 381      2.820000
      3 C3          0.1900    0.5390    2.5460 c2        1 381     -0.904000
      4 C2         -0.4490    1.6800    3.3070 c3        1 381     -0.157000
      5 C1          0.2020    1.8070    4.6670 c3        1 381     -0.067000
      6 N          -0.5050    2.7710    5.4440 n3        1 381     -0.349000
      7 O2          0.0790    1.7480    0.1370 o         1 381     -1.148000
      8 C4          0.1900   -0.9430   -0.0210 c3        1 381     -0.910000
      9 C5          0.0720   -0.7430   -1.5320 c3        1 381     -0.090000
     10 C10         1.4490   -0.8790   -2.1530 c3        1 381     -0.149500
     11 C9          1.4260   -0.6950   -3.6550 c3        1 381     -0.156000
     12 C8          0.3950   -1.5780   -4.3320 c3        1 381     -0.156000
     13 C7         -0.9820   -1.4430   -3.7110 c3        1 381     -0.156000
     14 C6         -0.9160   -1.7560   -2.0850 c3        1 381     -0.149500
     15 H1         -2.2910    1.2380    0.3730 ho        1 381      0.274000
     16 H2          1.1600    0.6500    2.5480 ha        1 381      0.141500
     17 H3         -0.0410   -0.3070    2.9730 ha        1 381      0.141500
     18 H4         -0.3290    2.5110    2.8100 hc        1 381      0.108500
     19 H5         -1.4030    1.5020    3.4190 hc        1 381      0.108500
     20 H6          0.1800    0.9430    5.1200 h1        1 381      0.063000
     21 H7          1.1290    2.0940    4.5580 h1        1 381      0.063000
     22 H8         -0.8250    2.3750    6.2010 hn        1 381      0.147000
     23 H9          0.0590    3.4510    5.6720 hn        1 381      0.147000
     24 H11        -0.3440   -1.7150    0.2480 hc        1 381      0.146500
     25 H12         1.1250   -1.0960    0.2140 hc        1 381      0.146500
     26 H13        -0.2660    0.1560   -1.7060 hc        1 381      0.117000
     27 H14         1.8010   -1.7660   -1.9490 hc        1 381      0.079000
     28 H15         2.0390   -0.2070   -1.7620 hc        1 381      0.079000
     29 H16         1.2230    0.2390   -3.8550 hc        1 381      0.083000
     30 H17         2.3090   -0.9090   -4.0120 hc        1 381      0.083000
     31 H18         0.6820   -2.5080   -4.2630 hc        1 381      0.079500
     32 H19         0.3410   -1.3330   -5.2760 hc        1 381      0.079500
     33 H20        -1.5910   -2.0760   -4.1370 hc        1 381      0.083000
     34 H21        -1.3110   -0.5350   -3.8520 hc        1 381      0.083000
     35 H22        -0.5950   -2.6640   -1.9260 hc        1 381      0.079000
     36 H23        -1.7950   -1.6290   -1.6790 hc        1 381      0.079000
@<TRIPOS>BOND
     1    1    2 1   
     2    1   15 1   
     3    2    7 1   
     4    2    8 1   
     5    3    4 1   
     6    3   16 1   
     7    3   17 1   
     8    4    5 1   
     9    4   18 1   
    10    4   19 1   
    11    5    6 1   
    12    5   20 1   
    13    5   21 1   
    14    6   22 1   
    15    6   23 1   
    16    8    9 1   
    17    8   24 1   
    18    8   25 1   
    19    9   10 1   
    20    9   14 1   
    21    9   26 1   
    22   10   11 1   
    23   10   27 1   
    24   10   28 1   
    25   11   12 1   
    26   11   29 1   
    27   11   30 1   
    28   12   13 1   
    29   12   31 1   
    30   12   32 1   
    31   13   14 1   
    32   13   33 1   
    33   13   34 1   
    34   14   35 1   
    35   14   36 1   
@<TRIPOS>SUBSTRUCTURE
     1 381         1 TEMP              0 ****  ****    0 ROOT
