@<TRIPOS>MOLECULE
381
   36    36     1     0     0
SMALL
bcc


@<TRIPOS>ATOM
      1 O1         -0.0940    0.3600    0.4610 o         1 381     -0.876000
      2 P           1.3080    0.0530    0.0750 p5        1 381      1.251400
      3 C3          2.1340   -0.1790    1.6170 c3        1 381     -0.311600
      4 C2          1.9480    1.1710    2.2310 c3        1 381     -0.119400
      5 C1          2.5730    1.2540    3.6100 c3        1 381      0.115800
      6 N           2.3510    2.6140    4.2070 n4        1 381     -0.844600
      7 O2          2.1230    1.0790   -0.6250 o         1 381     -0.876000
      8 C4          1.4510   -1.4880   -0.5870 c3        1 381     -0.357600
      9 C5          1.3360   -1.4160   -2.0940 c3        1 381     -0.036700
     10 C10         2.5570   -2.0290   -2.7720 c3        1 381     -0.070900
     11 C9          2.4510   -1.9440   -4.2810 c3        1 381     -0.075400
     12 C8          1.1840   -2.6040   -4.7840 c3        1 381     -0.074400
     13 C7         -0.0380   -2.0220   -4.1040 c3        1 381     -0.075400
     14 C6          0.0740   -2.1100   -2.5960 c3        1 381     -0.070900
     15 H2          3.2060   -0.4280    1.4680 hc        1 381      0.058200
     16 H3          1.6550   -0.9840    2.2120 hc        1 381      0.058200
     17 H4          0.8370    1.3720    2.2740 hc        1 381      0.104700
     18 H5          2.4090    1.9270    1.5300 hc        1 381      0.104700
     19 H6          2.1100    0.4970    4.3030 hx        1 381      0.093700
     20 H7          3.6840    1.0810    3.5560 hx        1 381      0.093700
     21 H8          1.3430    2.7940    4.2640 hn        1 381      0.448467
     22 H9          2.7640    2.6820    5.1360 hn        1 381      0.448467
     23 H11         2.4230   -1.9620   -0.3050 hc        1 381      0.067700
     24 H12         0.6550   -2.1570   -0.1750 hc        1 381      0.067700
     25 H13         1.2900   -0.3280   -2.4000 hc        1 381      0.073700
     26 H14         3.4790   -1.4880   -2.4350 hc        1 381      0.038450
     27 H15         2.6560   -3.1010   -2.4620 hc        1 381      0.038450
     28 H16         3.3420   -2.4380   -4.7480 hc        1 381      0.035700
     29 H17         2.4590   -0.8660   -4.5930 hc        1 381      0.035700
     30 H18         1.2320   -3.7070   -4.5850 hc        1 381      0.030200
     31 H19         1.1010   -2.4660   -5.8940 hc        1 381      0.030200
     32 H20        -0.1570   -0.9480   -4.4070 hc        1 381      0.035700
     33 H21        -0.9550   -2.5710   -4.4440 hc        1 381      0.035700
     34 H22         0.0940   -3.1870   -2.2840 hc        1 381      0.038450
     35 H23        -0.8300   -1.6390   -2.1280 hc        1 381      0.038450
     36 HN3         2.7670    3.3210    3.5930 hn        1 381      0.448467
@<TRIPOS>BOND
     1    1    2 1   
     2    2    3 1   
     3    2    7 1   
     4    2    8 1   
     5    3    4 1   
     6    3   15 1   
     7    3   16 1   
     8    4    5 1   
     9    4   17 1   
    10    4   18 1   
    11    5    6 1   
    12    5   19 1   
    13    5   20 1   
    14    6   21 1   
    15    6   22 1   
    16    6   36 1   
    17    8    9 1   
    18    8   23 1   
    19    8   24 1   
    20    9   10 1   
    21    9   14 1   
    22    9   25 1   
    23   10   11 1   
    24   10   26 1   
    25   10   27 1   
    26   11   12 1   
    27   11   28 1   
    28   11   29 1   
    29   12   13 1   
    30   12   30 1   
    31   12   31 1   
    32   13   14 1   
    33   13   32 1   
    34   13   33 1   
    35   14   34 1   
    36   14   35 1   
@<TRIPOS>SUBSTRUCTURE
     1 381         1 TEMP              0 ****  ****    0 ROOT
