@<TRIPOS>MOLECULE
381
   37    37     1     0     0
SMALL
bcc


@<TRIPOS>ATOM
      1 O1         -0.8410   -0.6880    1.5410 oh        1 381     -0.810400
      2 P           0.3170   -0.4020    0.4600 p5        1 381      1.501100
      3 C3          1.7020   -0.3480    1.4020 c3        1 381     -0.386600
      4 C2          1.7890    1.0560    1.9350 c3        1 381     -0.103400
      5 C1          3.0620    1.2620    2.7390 c3        1 381      0.110800
      6 N           3.2050    2.6760    3.2040 n4        1 381     -0.839600
      7 O2          0.0020    0.8990   -0.1270 o         1 381     -0.874300
      8 C4          0.4400   -1.7460   -0.4520 c3        1 381     -0.450600
      9 C5          1.0010   -1.4270   -1.8310 c3        1 381     -0.050700
     10 C10         2.3810   -2.0450   -2.0320 c3        1 381     -0.071400
     11 C9          2.9380   -1.6980   -3.3980 c3        1 381     -0.077900
     12 C8          2.0010   -2.1440   -4.5010 c3        1 381     -0.080400
     13 C7          0.6120   -1.5750   -4.3030 c3        1 381     -0.077900
     14 C6          0.0650   -1.9150   -2.9320 c3        1 381     -0.071400
     15 H1         -1.6130   -0.1290    1.4990 ho        1 381      0.487000
     16 H2          2.6190   -0.6050    0.8120 hc        1 381      0.110700
     17 H3          1.6610   -1.0850    2.2440 hc        1 381      0.110700
     18 H4          0.8790    1.2440    2.5700 hc        1 381      0.096700
     19 H5          1.7370    1.7700    1.0620 hc        1 381      0.096700
     20 H6          3.0630    0.5970    3.6510 hx        1 381      0.111700
     21 H7          3.9650    1.0160    2.1090 hx        1 381      0.111700
     22 H8          2.4150    2.9290    3.8070 hn        1 381      0.463133
     23 H9          3.2120    3.3100    2.3970 hn        1 381      0.463133
     24 H11        -0.5660   -2.2400   -0.5800 hc        1 381      0.123700
     25 H12         1.0610   -2.5550    0.0170 hc        1 381      0.123700
     26 H13         1.0910   -0.3050   -1.9350 hc        1 381      0.065700
     27 H14         2.3060   -3.1590   -1.9300 hc        1 381      0.040700
     28 H15         3.0880   -1.6810   -1.2400 hc        1 381      0.040700
     29 H16         3.0980   -0.5900   -3.4680 hc        1 381      0.048200
     30 H17         3.9350   -2.1930   -3.5280 hc        1 381      0.048200
     31 H18         1.9490   -3.2650   -4.5170 hc        1 381      0.050200
     32 H19         2.4050   -1.8120   -5.4930 hc        1 381      0.050200
     33 H20         0.6410   -0.4610   -4.4290 hc        1 381      0.048200
     34 H21        -0.0770   -1.9840   -5.0870 hc        1 381      0.048200
     35 H22        -0.9430   -1.4400   -2.8070 hc        1 381      0.040700
     36 H23        -0.0660   -3.0250   -2.8410 hc        1 381      0.040700
     37 HN3         4.0770    2.7890    3.7290 hn        1 381      0.463133
@<TRIPOS>BOND
     1    1    2 1   
     2    1   15 1   
     3    2    3 1   
     4    2    7 2   
     5    2    8 1   
     6    3    4 1   
     7    3   16 1   
     8    3   17 1   
     9    4    5 1   
    10    4   18 1   
    11    4   19 1   
    12    5    6 1   
    13    5   20 1   
    14    5   21 1   
    15    6   22 1   
    16    6   23 1   
    17    6   37 1   
    18    8    9 1   
    19    8   24 1   
    20    8   25 1   
    21    9   10 1   
    22    9   14 1   
    23    9   26 1   
    24   10   11 1   
    25   10   27 1   
    26   10   28 1   
    27   11   12 1   
    28   11   29 1   
    29   11   30 1   
    30   12   13 1   
    31   12   31 1   
    32   12   32 1   
    33   13   14 1   
    34   13   33 1   
    35   13   34 1   
    36   14   35 1   
    37   14   36 1   
@<TRIPOS>SUBSTRUCTURE
     1 381         1 TEMP              0 ****  ****    0 ROOT
