@<TRIPOS>MOLECULE
381
   36    36     1     0     0
SMALL
bcc


@<TRIPOS>ATOM
      1 O1         -0.0750    0.4400    0.4380 o         1 381     -0.876000
      2 P           1.3170    0.0710    0.0680 p5        1 381      1.251400
      3 C3          2.1180   -0.1850    1.6190 c3        1 381     -0.311600
      4 C2          1.9830    1.1770    2.2230 c3        1 381     -0.119400
      5 C1          2.5960    1.2430    3.6070 c3        1 381      0.115800
      6 N           2.4250    2.6150    4.1930 nz        1 381     -0.844600
      7 O2          2.1810    1.0560   -0.6300 o         1 381     -0.876000
      8 C4          1.4000   -1.4800   -0.5820 c3        1 381     -0.358600
      9 C5          1.3200   -1.4130   -2.0910 c3        1 381     -0.036700
     10 C10         2.5230   -2.0900   -2.7400 c3        1 381     -0.070900
     11 C9          2.4530   -2.0110   -4.2510 c3        1 381     -0.075400
     12 C8          1.1660   -2.6120   -4.7770 c3        1 381     -0.074400
     13 C7         -0.0400   -1.9660   -4.1270 c3        1 381     -0.075400
     14 C6          0.0360   -2.0480   -2.6160 c3        1 381     -0.070900
     15 H2          1.5990   -0.9640    2.2160 hc        1 381      0.058200
     16 H3          3.1790   -0.4800    1.4830 hc        1 381      0.058200
     17 H4          0.8800    1.4240    2.2530 hc        1 381      0.104700
     18 H5          2.4810    1.9070    1.5210 hc        1 381      0.104700
     19 H6          3.7000    1.0240    3.5660 hx        1 381      0.093700
     20 H7          2.0960    0.5110    4.3010 hx        1 381      0.093700
     21 H8          2.8320    2.6720    5.1250 hn        1 381      0.448800
     22 H9          1.4250    2.8370    4.2390 hn        1 381      0.448800
     23 H11         0.5630   -2.1070   -0.1820 hc        1 381      0.067700
     24 H12         2.3410   -1.9980   -0.2760 hc        1 381      0.067700
     25 H13         1.3330   -0.3260   -2.4050 hc        1 381      0.074700
     26 H14         3.4630   -1.5930   -2.3860 hc        1 381      0.038200
     27 H15         2.5630   -3.1640   -2.4210 hc        1 381      0.038200
     28 H16         3.3290   -2.5510   -4.6960 hc        1 381      0.035700
     29 H17         2.5210   -0.9370   -4.5700 hc        1 381      0.035700
     30 H18         1.1560   -3.7140   -4.5700 hc        1 381      0.030200
     31 H19         1.1130   -2.4780   -5.8890 hc        1 381      0.030200
     32 H20        -0.9750   -2.4730   -4.4830 hc        1 381      0.035700
     33 H21        -0.1000   -0.8900   -4.4380 hc        1 381      0.035700
     34 H22        -0.0030   -3.1230   -2.2970 hc        1 381      0.038200
     35 H23        -0.8530   -1.5310   -2.1700 hc        1 381      0.038200
     36 HN3         2.8760    3.3000    3.5790 hn        1 381      0.448800
@<TRIPOS>BOND
     1    1    2 1   
     2    2    3 1   
     3    2    7 1   
     4    2    8 1   
     5    3    4 1   
     6    3   15 1   
     7    3   16 1   
     8    4    5 1   
     9    4   17 1   
    10    4   18 1   
    11    5    6 1   
    12    5   19 1   
    13    5   20 1   
    14    6   21 1   
    15    6   22 1   
    16    6   36 1   
    17    8    9 1   
    18    8   23 1   
    19    8   24 1   
    20    9   10 1   
    21    9   14 1   
    22    9   25 1   
    23   10   11 1   
    24   10   26 1   
    25   10   27 1   
    26   11   12 1   
    27   11   28 1   
    28   11   29 1   
    29   12   13 1   
    30   12   30 1   
    31   12   31 1   
    32   13   14 1   
    33   13   32 1   
    34   13   33 1   
    35   14   34 1   
    36   14   35 1   
@<TRIPOS>SUBSTRUCTURE
     1 381         1 TEMP              0 ****  ****    0 ROOT
