@<TRIPOS>MOLECULE
381
   36    36     1     0     0
SMALL
bcc


@<TRIPOS>ATOM
      1 O1          1.5840   -2.1200   -1.5260 oh        1 381     -0.807400
      2 P           0.8610   -1.0410   -0.5650 p5        1 381      1.500100
      3 C3          1.7940    0.3140   -0.6470 c3        1 381     -0.417600
      4 C2          3.0380    0.0540    0.1650 c3        1 381     -0.078400
      5 C1          3.9350    1.2860    0.2230 c3        1 381      0.169800
      6 N           5.1780    1.0530    0.9180 n3        1 381     -0.916800
      7 O2          0.7610   -1.7000    0.7360 o         1 381     -0.877300
      8 C4         -0.5290   -0.6580   -1.3600 c3        1 381     -0.423600
      9 C5         -1.6360   -0.3000   -0.3840 c3        1 381     -0.050700
     10 C10        -2.0170    1.1740   -0.4810 c3        1 381     -0.070900
     11 C9         -3.1080    1.5210    0.5110 c3        1 381     -0.077400
     12 C8         -4.3320    0.6520    0.3080 c3        1 381     -0.077400
     13 C7         -3.9730   -0.8180    0.3660 c3        1 381     -0.077400
     14 C6         -2.8750   -1.1590   -0.6200 c3        1 381     -0.070900
     15 H1          1.8570   -2.9280   -1.0990 ho        1 381      0.475000
     16 H2          2.0900    0.5770   -1.6960 hc        1 381      0.102200
     17 H3          1.2710    1.2230   -0.2510 hc        1 381      0.102200
     18 H4          2.7310   -0.2610    1.2000 hc        1 381      0.069200
     19 H5          3.5870   -0.8080   -0.2990 hc        1 381      0.069200
     20 H6          4.1940    1.5970   -0.8300 h1        1 381      0.023700
     21 H7          3.3340    2.1300    0.6770 h1        1 381      0.023700
     22 H8          5.6680    1.9150    1.0520 hn        1 381      0.351800
     23 H9          5.0210    0.6200    1.8060 hn        1 381      0.351800
     24 H11        -0.3980    0.1780   -2.0950 hc        1 381      0.107200
     25 H12        -0.8640   -1.5240   -1.9950 hc        1 381      0.107200
     26 H13        -1.2760   -0.5090    0.6680 hc        1 381      0.077700
     27 H14        -1.1200    1.8180   -0.2850 hc        1 381      0.039700
     28 H15        -2.3710    1.3970   -1.5220 hc        1 381      0.039700
     29 H16        -2.7210    1.3840    1.5550 hc        1 381      0.043700
     30 H17        -3.3880    2.6000    0.3930 hc        1 381      0.043700
     31 H18        -5.0930    0.8860    1.0980 hc        1 381      0.040200
     32 H19        -4.7950    0.8860   -0.6860 hc        1 381      0.040200
     33 H20        -3.6360   -1.0800    1.4040 hc        1 381      0.043700
     34 H21        -4.8800   -1.4350    0.1400 hc        1 381      0.043700
     35 H22        -3.2440   -0.9980   -1.6670 hc        1 381      0.039700
     36 H23        -2.6060   -2.2420   -0.5150 hc        1 381      0.039700
@<TRIPOS>BOND
     1    1    2 1   
     2    1   15 1   
     3    2    3 1   
     4    2    7 2   
     5    2    8 1   
     6    3    4 1   
     7    3   16 1   
     8    3   17 1   
     9    4    5 1   
    10    4   18 1   
    11    4   19 1   
    12    5    6 1   
    13    5   20 1   
    14    5   21 1   
    15    6   22 1   
    16    6   23 1   
    17    8    9 1   
    18    8   24 1   
    19    8   25 1   
    20    9   10 1   
    21    9   14 1   
    22    9   26 1   
    23   10   11 1   
    24   10   27 1   
    25   10   28 1   
    26   11   12 1   
    27   11   29 1   
    28   11   30 1   
    29   12   13 1   
    30   12   31 1   
    31   12   32 1   
    32   13   14 1   
    33   13   33 1   
    34   13   34 1   
    35   14   35 1   
    36   14   36 1   
@<TRIPOS>SUBSTRUCTURE
     1 381         1 TEMP              0 ****  ****    0 ROOT
