@<TRIPOS>MOLECULE
382
   56    60     1     0     0
SMALL
bcc


@<TRIPOS>ATOM
      1 C1          0.0270   -1.2600    1.0640 c3        1 382     -0.118400
      2 C2          0.9710   -0.2120    1.6540 c3        1 382      0.147800
      3 N3          1.9450   -0.7340    2.6010 n3        1 382     -0.808200
      4 C4          2.6800   -1.8600    2.0360 c3        1 382      0.138500
      5 C5          1.7940   -2.9900    1.4960 c3        1 382     -0.112400
      6 C6          0.8010   -2.4320    0.4960 c3        1 382     -0.079400
      7 C15         3.6890   -2.4390    3.0940 c3        1 382      0.392600
      8 F17         4.3340   -3.5660    2.6320 f         1 382     -0.226300
      9 F18         3.0720   -2.9000    4.2380 f         1 382     -0.226300
     10 C19         4.7310   -1.3150    3.4400 c3        1 382      0.055800
     11 N20         5.7420   -1.7870    4.4270 n4        1 382     -0.728700
     12 C23         6.6500   -0.7200    4.8900 ca        1 382      0.496200
     13 C24         7.0450   -0.7130    6.2390 ca        1 382     -0.015900
     14 C25         8.0380    0.2570    6.6450 ca        1 382      0.079100
     15 C26         8.5300    1.1990    5.7620 ca        1 382     -0.159300
     16 C27         8.0110    1.1120    4.4450 ca        1 382      0.428200
     17 N28         7.1270    0.2010    4.0050 nb        1 382     -0.644000
     18 N31         6.7370   -1.5350    7.3350 nc        1 382     -0.600100
     19 C32         7.5350   -1.1350    8.3220 cd        1 382      0.634600
     20 O33         8.3460   -0.0070    7.9740 os        1 382     -0.284700
     21 C34         7.8200   -1.6920    9.6680 c3        1 382     -0.060400
     22 C36         6.7710   -2.5830   10.2380 ca        1 382     -0.083300
     23 C39         6.2480   -2.2330   11.4910 ca        1 382     -0.109000
     24 C40         5.3350   -3.0510   12.1500 ca        1 382     -0.109000
     25 C41         4.9290   -4.2500   11.5660 ca        1 382     -0.100000
     26 C42         5.4240   -4.6230   10.3200 ca        1 382     -0.121000
     27 C43         6.3380   -3.7910    9.6420 ca        1 382      0.019800
     28 N48         6.7600   -4.1920    8.3380 na        1 382      0.024500
     29 N49         8.0340   -4.2350    7.8990 nc        1 382     -0.501800
     30 C50         7.9310   -4.3660    6.5480 cd        1 382      0.504900
     31 N51         6.5950   -4.3680    6.0960 nd        1 382     -0.754000
     32 C52         5.8770   -4.2690    7.2330 cc        1 382      0.438400
     33 H11        -0.5850   -0.7820    0.2560 hc        1 382      0.060700
     34 H12        -0.6810   -1.6210    1.8550 hc        1 382      0.060700
     35 H21         1.5400    0.2850    0.8190 h1        1 382      0.066700
     36 H22         0.3720    0.5800    2.1850 h1        1 382      0.066700
     37 HN3         1.4700   -1.0390    3.4360 hn        1 382      0.360800
     38 H4          3.3080   -1.4610    1.1850 h1        1 382      0.088700
     39 H51         1.2550   -3.4840    2.3470 hc        1 382      0.066700
     40 H52A        2.4390   -3.7640    1.0060 hc        1 382      0.066700
     41 H61         0.0880   -3.2430    0.1940 hc        1 382      0.058700
     42 H62         1.3480   -2.1050   -0.4270 hc        1 382      0.058700
     43 H191        4.1880   -0.4270    3.8710 hx        1 382      0.143200
     44 H192        5.2510   -1.0070    2.4890 hx        1 382      0.143200
     45 H20         6.3090   -2.5430    4.0080 hn        1 382      0.483800
     46 H26         9.2760    1.9560    6.0400 ha        1 382      0.198000
     47 H27         8.3490    1.8330    3.6710 h4        1 382      0.067100
     48 H341        8.7930   -2.2640    9.5860 hc        1 382      0.114700
     49 H342        8.0110   -0.8220   10.3600 hc        1 382      0.114700
     50 H39         6.5710   -1.2940   11.9690 ha        1 382      0.148000
     51 H40         4.9420   -2.7540   13.1350 ha        1 382      0.157000
     52 H41         4.2200   -4.9100   12.0900 ha        1 382      0.158000
     53 H42         5.1020   -5.5780    9.8720 ha        1 382      0.157000
     54 H50         8.7890   -4.4980    5.8800 h5        1 382      0.079100
     55 H52         4.7860   -4.2760    7.3420 h5        1 382      0.079100
     56 H202        5.2530   -2.1830    5.2480 hn        1 382      0.483800
@<TRIPOS>BOND
     1    1    2 1   
     2    1    6 1   
     3    1   33 1   
     4    1   34 1   
     5    2    3 1   
     6    2   35 1   
     7    2   36 1   
     8    3    4 1   
     9    3   37 1   
    10    4    5 1   
    11    4    7 1   
    12    4   38 1   
    13    5    6 1   
    14    5   39 1   
    15    5   40 1   
    16    6   41 1   
    17    6   42 1   
    18    7    8 1   
    19    7    9 1   
    20    7   10 1   
    21   10   11 1   
    22   10   43 1   
    23   10   44 1   
    24   11   12 1   
    25   11   45 1   
    26   11   56 1   
    27   12   13 ar  
    28   12   17 ar  
    29   13   14 ar  
    30   13   18 1   
    31   14   15 ar  
    32   14   20 1   
    33   15   16 ar  
    34   15   46 1   
    35   16   17 ar  
    36   16   47 1   
    37   18   19 2   
    38   19   20 1   
    39   19   21 1   
    40   21   22 1   
    41   21   48 1   
    42   21   49 1   
    43   22   23 ar  
    44   22   27 ar  
    45   23   24 ar  
    46   23   50 1   
    47   24   25 ar  
    48   24   51 1   
    49   25   26 ar  
    50   25   52 1   
    51   26   27 ar  
    52   26   53 1   
    53   27   28 1   
    54   28   29 1   
    55   28   32 1   
    56   29   30 2   
    57   30   31 1   
    58   30   54 1   
    59   31   32 2   
    60   32   55 1   
@<TRIPOS>SUBSTRUCTURE
     1 382         1 TEMP              0 ****  ****    0 ROOT
