@<TRIPOS>MOLECULE
382
   55    59     1     0     0
SMALL
bcc


@<TRIPOS>ATOM
      1 C1          7.6720   -0.2870    1.1650 c3        1 382     -0.080400
      2 C2          6.9890    0.9140    0.5160 c3        1 382      0.170800
      3 N3          5.6630    0.6250    0.0050 n3        1 382     -0.815200
      4 C4          4.7830   -0.0210    0.9640 c3        1 382      0.148500
      5 C5          5.4260   -1.2490    1.6240 c3        1 382     -0.081400
      6 C6          6.7760   -0.9070    2.2150 c3        1 382     -0.077400
      7 C15         3.4320   -0.4730    0.2760 c3        1 382      0.395600
      8 F17         2.6220   -1.0920    1.2130 f         1 382     -0.235300
      9 F18         3.6120   -1.4780   -0.6460 f         1 382     -0.235300
     10 C19         2.7340    0.7790   -0.3590 c3        1 382      0.168800
     11 N20         1.3690    0.5330   -0.7360 nh        1 382     -0.840900
     12 C23         0.5750    1.5650   -1.2160 ca        1 382      0.726200
     13 C24        -0.8340    1.3620   -1.3570 ca        1 382     -0.129900
     14 C25        -1.6200    2.4070   -1.9470 ca        1 382      0.111100
     15 C26        -1.0610    3.6040   -2.3700 ca        1 382     -0.289300
     16 C27         0.3280    3.6970   -2.1640 ca        1 382      0.459200
     17 N28         1.1230    2.7610   -1.6180 nb        1 382     -0.749000
     18 N31        -1.6830    0.2870   -1.0200 nc        1 382     -0.537100
     19 C32        -2.8980    0.6680   -1.3900 cd        1 382      0.534600
     20 O33        -2.9390    1.9770   -1.9780 os        1 382     -0.310700
     21 C34        -4.2260    0.0120   -1.3240 c3        1 382     -0.043400
     22 C36        -4.1730   -1.3770   -0.7880 ca        1 382     -0.061300
     23 C39        -4.6110   -2.4200   -1.6150 ca        1 382     -0.111000
     24 C40        -4.6030   -3.7410   -1.1790 ca        1 382     -0.126000
     25 C41        -4.1530   -4.0440    0.1050 ca        1 382     -0.111000
     26 C42        -3.7180   -3.0300    0.9520 ca        1 382     -0.140000
     27 C43        -3.7230   -1.6870    0.5150 ca        1 382      0.041800
     28 N48        -3.2480   -0.6910    1.4130 na        1 382      0.012500
     29 N49        -3.8270    0.5050    1.6440 nc        1 382     -0.519800
     30 C50        -3.0480    1.0840    2.5980 cd        1 382      0.507900
     31 N51        -1.9620    0.2770    2.9910 nd        1 382     -0.686000
     32 C52        -2.1040   -0.8310    2.2400 cc        1 382      0.426400
     33 H11         8.6330    0.0560    1.6270 hc        1 382      0.051700
     34 H12         7.9200   -1.0500    0.3820 hc        1 382      0.051700
     35 H21         6.9700    1.7570    1.2710 h1        1 382      0.032200
     36 H22         7.6050    1.2580   -0.3630 h1        1 382      0.032200
     37 HN3         5.2390    1.4690   -0.3340 hn        1 382      0.366800
     38 H4          4.4680    0.6900    1.7900 h1        1 382      0.035700
     39 H51         4.7340   -1.6210    2.4230 hc        1 382      0.063700
     40 H52A        5.5380   -2.0620    0.8590 hc        1 382      0.063700
     41 H61         6.6450   -0.1920    3.0700 hc        1 382      0.044200
     42 H62         7.2520   -1.8360    2.6230 hc        1 382      0.044200
     43 H191        2.8100    1.6200    0.3870 h1        1 382      0.074200
     44 H192        3.3070    1.0580   -1.2890 h1        1 382      0.074200
     45 H20         0.8930   -0.1940   -0.2450 hn        1 382      0.451800
     46 H26        -1.6440    4.4110   -2.8210 ha        1 382      0.162000
     47 H27         0.8620    4.6210   -2.4630 h4        1 382      0.025100
     48 H341       -4.9120    0.6500   -0.6980 hc        1 382      0.092700
     49 H342       -4.6500    0.0090   -2.3690 hc        1 382      0.092700
     50 H39        -4.9620   -2.1880   -2.6330 ha        1 382      0.140000
     51 H40        -4.9490   -4.5430   -1.8470 ha        1 382      0.141000
     52 H41        -4.1420   -5.0870    0.4560 ha        1 382      0.142000
     53 H42        -3.3730   -3.2830    1.9670 ha        1 382      0.145000
     54 H50        -3.2350    2.0760    3.0230 h5        1 382      0.072100
     55 H52        -1.4550   -1.7120    2.2200 h5        1 382      0.077100
@<TRIPOS>BOND
     1    1    2 1   
     2    1    6 1   
     3    1   33 1   
     4    1   34 1   
     5    2    3 1   
     6    2   35 1   
     7    2   36 1   
     8    3    4 1   
     9    3   37 1   
    10    4    5 1   
    11    4    7 1   
    12    4   38 1   
    13    5    6 1   
    14    5   39 1   
    15    5   40 1   
    16    6   41 1   
    17    6   42 1   
    18    7    8 1   
    19    7    9 1   
    20    7   10 1   
    21   10   11 1   
    22   10   43 1   
    23   10   44 1   
    24   11   12 1   
    25   11   45 1   
    26   12   13 ar  
    27   12   17 ar  
    28   13   14 ar  
    29   13   18 1   
    30   14   15 ar  
    31   14   20 1   
    32   15   16 ar  
    33   15   46 1   
    34   16   17 ar  
    35   16   47 1   
    36   18   19 2   
    37   19   20 1   
    38   19   21 1   
    39   21   22 1   
    40   21   48 1   
    41   21   49 1   
    42   22   23 ar  
    43   22   27 ar  
    44   23   24 ar  
    45   23   50 1   
    46   24   25 ar  
    47   24   51 1   
    48   25   26 ar  
    49   25   52 1   
    50   26   27 ar  
    51   26   53 1   
    52   27   28 1   
    53   28   29 1   
    54   28   32 1   
    55   29   30 2   
    56   30   31 1   
    57   30   54 1   
    58   31   32 2   
    59   32   55 1   
@<TRIPOS>SUBSTRUCTURE
     1 382         1 TEMP              0 ****  ****    0 ROOT
