@<TRIPOS>MOLECULE
382
   55    59     1     0     0
SMALL
bcc


@<TRIPOS>ATOM
      1 C1          0.1270   -1.1320    0.4670 c3        1 382     -0.117400
      2 C2          1.1810   -0.0850    0.8260 c3        1 382      0.154800
      3 N3          1.9320   -0.3520    2.0380 n7        1 382     -0.797200
      4 C4          2.4900   -1.6990    2.0540 c3        1 382      0.130500
      5 C5          1.4740   -2.8090    1.7470 c3        1 382     -0.115400
      6 C6          0.7350   -2.5190    0.4590 c3        1 382     -0.075400
      7 C15         3.1910   -1.9990    3.4330 c3        1 382      0.389600
      8 F17         3.5450   -3.3300    3.5250 f         1 382     -0.240800
      9 F18         2.3180   -1.8690    4.4970 f         1 382     -0.240800
     10 C19         4.4310   -1.0520    3.5800 c3        1 382      0.183800
     11 N20         5.1670   -1.2930    4.7910 nu        1 382     -0.853900
     12 C23         6.2500   -0.5050    5.1410 ca        1 382      0.734200
     13 C24         6.8340   -0.6470    6.4390 ca        1 382     -0.135900
     14 C25         8.0020    0.1250    6.7510 ca        1 382      0.113100
     15 C26         8.5720    1.0050    5.8430 ca        1 382     -0.293300
     16 C27         7.9050    1.0680    4.6040 ca        1 382      0.461200
     17 N28         6.8100    0.3770    4.2460 nb        1 382     -0.748000
     18 N31         6.4960   -1.4360    7.5590 nc        1 382     -0.538100
     19 C32         7.4060   -1.1480    8.4790 cd        1 382      0.530600
     20 O33         8.3780   -0.1840    8.0510 os        1 382     -0.308700
     21 C34         7.6080   -1.6160    9.8720 c3        1 382     -0.042400
     22 C36         6.7100   -2.7450   10.2440 ca        1 382     -0.059300
     23 C39         5.8180   -2.5610   11.3080 ca        1 382     -0.112000
     24 C40         4.9540   -3.5750   11.7100 ca        1 382     -0.127000
     25 C41         4.9660   -4.8000   11.0460 ca        1 382     -0.112000
     26 C42         5.8460   -5.0160    9.9910 ca        1 382     -0.139000
     27 C43         6.7270   -3.9920    9.5790 ca        1 382      0.041800
     28 N48         7.5980   -4.2540    8.4850 na        1 382      0.006500
     29 N49         8.9190   -3.9810    8.4520 nc        1 382     -0.520800
     30 C50         9.3440   -4.4900    7.2640 cd        1 382      0.508900
     31 N51         8.3120   -5.0990    6.5220 nd        1 382     -0.682000
     32 C52         7.2270   -4.9450    7.3030 cc        1 382      0.428400
     33 H11        -0.2960   -0.8930   -0.5420 hc        1 382      0.047700
     34 H12        -0.7160   -1.0930    1.2050 hc        1 382      0.047700
     35 H21         0.6870    0.9200    0.9440 h1        1 382      0.056700
     36 H22         1.9220   -0.0100   -0.0190 h1        1 382      0.056700
     37 HN3         1.3420   -0.2290    2.8440 hn        1 382      0.360800
     38 H4          3.3030   -1.7320    1.2710 h1        1 382      0.083700
     39 H51         0.7510   -2.8950    2.6000 hc        1 382      0.060700
     40 H52A        2.0170   -3.7870    1.6650 hc        1 382      0.060700
     41 H61        -0.0700   -3.2840    0.3110 hc        1 382      0.045700
     42 H62         1.4460   -2.6070   -0.4060 hc        1 382      0.045700
     43 H191        5.1060   -1.2370    2.6970 h1        1 382      0.084200
     44 H192        4.0590    0.0110    3.5340 h1        1 382      0.084200
     45 H20         4.6870   -1.7520    5.5330 hn        1 382      0.453800
     46 H26         9.4620    1.6000    6.0630 ha        1 382      0.162000
     47 H27         8.2860    1.7460    3.8160 h4        1 382      0.025100
     48 H341        8.6870   -1.9110   10.0020 hc        1 382      0.092200
     49 H342        7.4270   -0.7350   10.5510 hc        1 382      0.092200
     50 H39         5.7990   -1.5920   11.8320 ha        1 382      0.140000
     51 H40         4.2610   -3.4070   12.5480 ha        1 382      0.140000
     52 H41         4.2820   -5.6040   11.3570 ha        1 382      0.141000
     53 H42         5.8520   -5.9920    9.4810 ha        1 382      0.145000
     54 H50        10.3770   -4.4340    6.9070 h5        1 382      0.073100
     55 H52         6.2000   -5.2570    7.0890 h5        1 382      0.077100
@<TRIPOS>BOND
     1    1    2 1   
     2    1    6 1   
     3    1   33 1   
     4    1   34 1   
     5    2    3 1   
     6    2   35 1   
     7    2   36 1   
     8    3    4 1   
     9    3   37 1   
    10    4    5 1   
    11    4    7 1   
    12    4   38 1   
    13    5    6 1   
    14    5   39 1   
    15    5   40 1   
    16    6   41 1   
    17    6   42 1   
    18    7    8 1   
    19    7    9 1   
    20    7   10 1   
    21   10   11 1   
    22   10   43 1   
    23   10   44 1   
    24   11   12 1   
    25   11   45 1   
    26   12   13 ar  
    27   12   17 ar  
    28   13   14 ar  
    29   13   18 1   
    30   14   15 ar  
    31   14   20 1   
    32   15   16 ar  
    33   15   46 1   
    34   16   17 ar  
    35   16   47 1   
    36   18   19 2   
    37   19   20 1   
    38   19   21 1   
    39   21   22 1   
    40   21   48 1   
    41   21   49 1   
    42   22   23 ar  
    43   22   27 ar  
    44   23   24 ar  
    45   23   50 1   
    46   24   25 ar  
    47   24   51 1   
    48   25   26 ar  
    49   25   52 1   
    50   26   27 ar  
    51   26   53 1   
    52   27   28 1   
    53   28   29 1   
    54   28   32 1   
    55   29   30 2   
    56   30   31 1   
    57   30   54 1   
    58   31   32 2   
    59   32   55 1   
@<TRIPOS>SUBSTRUCTURE
     1 382         1 TEMP              0 ****  ****    0 ROOT
