@<TRIPOS>MOLECULE
382
   55    49     1     0     0
SMALL
bcc


@<TRIPOS>ATOM
      1 C1         -5.1240    0.8750   -6.2160 c3        1 382     -0.196000
      2 C2         -3.8200    1.6340   -6.1000 c3        1 382     -0.082000
      3 N3         -3.1890    1.4650   -4.7880 n3        1 382     -0.277000
      4 C4         -3.0470    0.0650   -4.4030 c3        1 382     -0.067000
      5 C5         -4.3470   -0.6990   -4.5130 c3        1 382     -0.194000
      6 C6         -4.9840   -0.5370   -5.8340 c3        1 382     -0.154000
      7 C15        -2.5580   -0.0020   -2.9660 c3        1 382      0.249000
      8 F17        -3.0450   -1.1020   -2.3800 f         1 382     -0.168500
      9 F18        -2.9770    1.0820   -2.3000 f         1 382     -0.168500
     10 C19        -1.0180   -0.0500   -2.9480 c3        1 382     -0.056000
     11 N20        -0.5500   -0.1420   -1.5710 n3        1 382     -0.296000
     12 C23         0.8740   -0.1370   -1.2840 c2        1 382      0.214000
     13 C24         1.3860   -0.0620    0.0320 c1        1 382     -0.217000
     14 C25         2.7190   -0.1610    0.2450 c1        1 382      0.066000
     15 C26         3.5810   -0.3360   -0.8290 c1        1 382     -0.121250
     16 C27         3.0740   -0.4090   -2.1230 c1        1 382     -0.121250
     17 N28         1.7240   -0.3090   -2.3380 n1        1 382     -0.222000
     18 N31         0.7690    0.0370    1.2510 n1        1 382     -0.102000
     19 C32         1.7300   -0.0000    2.2130 c1        1 382      0.019000
     20 O33         2.9360   -0.1230    1.5990 o         1 382     -0.130000
     21 C34         1.4390    0.1470    3.7150 c2        1 382     -0.054000
     22 C36         2.4000   -0.7480    4.5140 c2        1 382     -0.046000
     23 C39         2.6960   -2.0280    4.0600 c2        1 382     -0.110000
     24 C40         3.5380   -2.8530    4.8020 c1        1 382     -0.119000
     25 C41         4.0850   -2.3950    5.9990 c1        1 382     -0.121250
     26 C42         3.7880   -1.1120    6.4540 c1        1 382     -0.121250
     27 C43         2.9480   -0.2890    5.7140 c1        1 382      0.060000
     28 N48         2.6370    0.9720    6.1760 n2        1 382     -0.102500
     29 N49         3.3990    2.0730    6.0370 n2        1 382     -0.102500
     30 C50         2.8270    3.0680    6.7430 c1        1 382     -0.114000
     31 N51         1.7140    2.5830    7.3180 n2        1 382     -0.155000
     32 C52         1.5950    1.2870    6.9680 c1        1 382     -0.114000
     33 H11        -5.7870    1.2950   -5.6370 hc        1 382      0.088000
     34 H12        -5.4370    0.9230   -7.1430 hc        1 382      0.088000
     35 H21        -3.9940    2.5840   -6.2480 h1        1 382      0.096000
     36 H22        -3.2050    1.3130   -6.7910 h1        1 382      0.096000
     37 HN3        -3.6780    1.9080   -4.1540 hn        1 382      0.156000
     38 H4         -2.3850   -0.3560   -4.9820 h1        1 382      0.121000
     39 H51        -4.1680   -1.6520   -4.3620 hc        1 382      0.100000
     40 H52A       -4.9630   -0.3770   -3.8220 hc        1 382      0.100000
     41 H61        -5.8720   -0.9480   -5.8090 hc        1 382      0.085500
     42 H62        -4.4420   -0.9940   -6.5050 hc        1 382      0.085500
     43 H191       -0.6630    0.7590   -3.3590 h1        1 382      0.123500
     44 H192       -0.7120   -0.8300   -3.4480 h1        1 382      0.123500
     45 H20        -1.1520   -0.2270   -0.8900 hn        1 382      0.251000
     46 H26         4.5460   -0.4080   -0.6760 ha        1 382      0.152750
     47 H27         3.6800   -0.5320   -2.8780 ha        1 382      0.152750
     48 H341        1.5660    1.0810    3.9820 ha        1 382      0.140500
     49 H342        0.5140   -0.1230    3.8970 ha        1 382      0.140500
     50 H39         2.3130   -2.3500    3.2210 ha        1 382      0.150000
     51 H40         3.7470   -3.7580    4.4810 ha        1 382      0.143000
     52 H41         4.6780   -2.9760    6.5210 ha        1 382      0.152750
     53 H42         4.1710   -0.7910    7.2930 ha        1 382      0.152750
     54 H50         3.1640    3.9840    6.8240 DU        1 382      0.212000
     55 H52         0.8780    0.6820    7.2410 DU        1 382      0.212000
@<TRIPOS>BOND
     1    1    2 1   
     2    1    6 1   
     3    1   33 1   
     4    1   34 1   
     5    2    3 1   
     6    2   35 1   
     7    2   36 1   
     8    3    4 1   
     9    3   37 1   
    10    4    5 1   
    11    4    7 1   
    12    4   38 1   
    13    5    6 1   
    14    5   39 1   
    15    5   40 1   
    16    6   41 1   
    17    6   42 1   
    18    7    8 1   
    19    7    9 1   
    20    7   10 1   
    21   10   11 1   
    22   10   43 1   
    23   10   44 1   
    24   11   12 1   
    25   11   45 1   
    26   12   13 1   
    27   12   17 1   
    28   13   14 1   
    29   15   16 1   
    30   15   46 1   
    31   16   47 1   
    32   18   19 1   
    33   19   20 1   
    34   21   22 1   
    35   21   48 1   
    36   21   49 1   
    37   22   23 1   
    38   22   27 1   
    39   23   24 1   
    40   23   50 1   
    41   24   51 1   
    42   25   26 1   
    43   25   52 1   
    44   26   53 1   
    45   28   29 1   
    46   28   32 1   
    47   29   30 1   
    48   30   31 1   
    49   31   32 1   
@<TRIPOS>SUBSTRUCTURE
     1 382         1 TEMP              0 ****  ****    0 ROOT
