@<TRIPOS>MOLECULE
383
   51    53     1     0     0
SMALL
bcc


@<TRIPOS>ATOM
      1 C8          0.0180    0.8600   -5.3400 ca        1 383     -0.082500
      2 C7         -0.4070    0.3670   -6.5720 ca        1 383     -0.191000
      3 C12        -0.4150   -1.0160   -6.7900 ca        1 383      0.108100
      4 C11        -0.0010   -1.9050   -5.7860 ca        1 383     -0.191000
      5 C10         0.4190   -1.3930   -4.5620 ca        1 383     -0.082500
      6 C9          0.4310   -0.0110   -4.3270 ca        1 383     -0.101300
      7 C14         0.9020    0.5130   -3.0170 c3        1 383     -0.038100
      8 C15        -0.2670    0.9850   -2.1290 c3        1 383      0.096500
      9 C17         0.2530    1.0040   -0.6670 c         1 383      0.597100
     10 N19         0.3300   -0.1930   -0.0050 n         1 383     -0.486900
     11 C20         1.1690   -0.3520    1.1620 c3        1 383     -0.053300
     12 C21         2.0850   -1.6280    1.0540 c         1 383      0.923600
     13 O23         2.3590   -2.0540   -0.0980 o         1 383     -0.822800
     14 O18         0.5210    2.0990   -0.1120 o         1 383     -0.678100
     15 N16        -0.8220    2.2540   -2.5550 n3        1 383     -0.886800
     16 O22         2.5060   -2.1130    2.1400 o         1 383     -0.822800
     17 C6          0.3900   -0.3450    2.4990 c3        1 383      0.098500
     18 N5         -0.6550   -1.4030    2.5840 n3        1 383     -0.455100
     19 C4         -1.4380   -1.2480    3.8420 c3        1 383      0.279300
     20 C3         -2.2780    0.0620    3.7490 c3        1 383      0.104100
     21 C2         -1.1090    1.0690    3.9930 c3        1 383      0.078800
     22 C1         -0.2090    1.0740    2.7400 c3        1 383      0.165100
     23 O28        -0.1980   -2.6400    2.4700 oh        1 383     -0.406300
     24 O29        -1.5200    2.3820    4.2760 oh        1 383     -0.552800
     25 C30        -0.3800    0.3760    5.1700 c3        1 383      0.094400
     26 O31        -0.6310   -1.0330    5.0310 os        1 383     -0.438600
     27 O32        -3.0420    0.2510    2.5960 oh        1 383     -0.582800
     28 O64         0.8530    1.9830    2.9610 oh        1 383     -0.597800
     29 O13        -0.8190   -1.5760   -7.9850 oh        1 383     -0.507100
     30 H8          0.0180    1.9460   -5.1590 ha        1 383      0.148000
     31 H7         -0.7350    1.0550   -7.3620 ha        1 383      0.134000
     32 H11        -0.0130   -2.9870   -5.9760 ha        1 383      0.134000
     33 H10         0.7490   -2.0840   -3.7690 ha        1 383      0.148000
     34 H141        1.6180    1.3610   -3.1850 hc        1 383      0.072200
     35 H142        1.4670   -0.2930   -2.4710 hc        1 383      0.072200
     36 H15        -1.1000    0.2240   -2.2040 h1        1 383      0.077700
     37 H19         0.2510   -1.0290   -0.5500 hn        1 383      0.326500
     38 H20         1.8850    0.5240    1.2260 h1        1 383      0.065700
     39 H161       -1.5600    2.5180   -1.9290 hn        1 383      0.350300
     40 H162       -0.1140    2.9650   -2.5110 hn        1 383      0.350300
     41 H6          1.1870   -0.5260    3.2880 h1        1 383      0.095700
     42 H4         -2.0260   -2.1790    4.0390 h2        1 383      0.104700
     43 H3         -3.0190    0.1100    4.5930 h1        1 383      0.069700
     44 H1         -0.8240    1.4070    1.8580 h1        1 383      0.064700
     45 H28         0.7120   -2.7220    2.8450 ho        1 383      0.439000
     46 H29        -2.1880    2.3130    4.9700 ho        1 383      0.390000
     47 H301        0.7240    0.5420    5.1400 h1        1 383      0.057200
     48 H302       -0.7990    0.6940    6.1570 h1        1 383      0.057200
     49 H32        -2.4870    0.0760    1.8230 ho        1 383      0.432000
     50 H64         1.0970    2.3260    2.0880 ho        1 383      0.431000
     51 H13        -1.0920   -0.8530   -8.5670 ho        1 383      0.410000
@<TRIPOS>BOND
     1    1    2 ar  
     2    1    6 ar  
     3    1   30 1   
     4    2    3 ar  
     5    2   31 1   
     6    3    4 ar  
     7    3   29 1   
     8    4    5 ar  
     9    4   32 1   
    10    5    6 ar  
    11    5   33 1   
    12    6    7 1   
    13    7    8 1   
    14    7   34 1   
    15    7   35 1   
    16    8    9 1   
    17    8   15 1   
    18    8   36 1   
    19    9   10 1   
    20    9   14 2   
    21   10   11 1   
    22   10   37 1   
    23   11   12 1   
    24   11   17 1   
    25   11   38 1   
    26   12   13 1   
    27   12   16 1   
    28   15   39 1   
    29   15   40 1   
    30   17   18 1   
    31   17   22 1   
    32   17   41 1   
    33   18   19 1   
    34   18   23 1   
    35   19   20 1   
    36   19   26 1   
    37   19   42 1   
    38   20   21 1   
    39   20   27 1   
    40   20   43 1   
    41   21   22 1   
    42   21   24 1   
    43   21   25 1   
    44   22   28 1   
    45   22   44 1   
    46   23   45 1   
    47   24   46 1   
    48   25   26 1   
    49   25   47 1   
    50   25   48 1   
    51   27   49 1   
    52   28   50 1   
    53   29   51 1   
@<TRIPOS>SUBSTRUCTURE
     1 383         1 TEMP              0 ****  ****    0 ROOT
