@<TRIPOS>MOLECULE
383
   53    55     1     0     0
SMALL
bcc


@<TRIPOS>ATOM
      1 C8         -0.0480    0.4330    0.1630 ca        1 383     -0.086000
      2 C7          1.3310    0.6010    0.0870 ca        1 383     -0.181000
      3 C12         2.1340    0.2060    1.1690 ca        1 383      0.169100
      4 C11         1.5540   -0.3570    2.3250 ca        1 383     -0.181000
      5 C10         0.1770   -0.5150    2.3800 ca        1 383     -0.086000
      6 C9         -0.6350   -0.1350    1.3000 ca        1 383     -0.221300
      7 C14        -2.1120   -0.2670    1.3930 c3        1 383     -0.041100
      8 C15        -2.5580   -1.7350    1.3040 c3        1 383      0.035500
      9 C17        -4.1040   -1.7980    1.1660 c         1 383      0.647100
     10 N19        -4.8370   -1.4150    2.2500 n         1 383     -0.520900
     11 C20        -6.2850   -1.4440    2.2300 c3        1 383      0.009700
     12 C21        -6.8900   -0.0670    1.9460 c         1 383      0.618100
     13 O23        -6.4170    1.0600    2.5450 oh        1 383     -0.565100
     14 O18        -4.5890   -2.1670    0.0770 o         1 383     -0.590100
     15 N16        -1.9260   -2.4310    0.1340 n4        1 383     -0.835600
     16 O22        -7.7870    0.1240    1.1310 o         1 383     -0.448000
     17 C6         -6.9200   -2.0550    3.5130 c3        1 383      0.139500
     18 N5         -6.3870   -1.4360    4.7620 n3        1 383     -0.498100
     19 C4         -6.7020   -2.2630    5.9640 c3        1 383      0.280300
     20 C3         -6.0370   -3.6710    5.8360 c3        1 383      0.093100
     21 C2         -7.0290   -4.2650    4.7960 c3        1 383      0.087800
     22 C1         -6.7250   -3.5960    3.4410 c3        1 383      0.167100
     23 O28        -6.9650   -0.2210    4.8510 oh        1 383     -0.416300
     24 O29        -6.9480   -5.6510    4.6080 oh        1 383     -0.568800
     25 C30        -8.3850   -3.7740    5.3600 c3        1 383      0.082400
     26 O31        -8.1040   -2.5650    6.0900 os        1 383     -0.399600
     27 O32        -4.7190   -3.6700    5.3480 oh        1 383     -0.577800
     28 O64        -7.6170   -4.0340    2.4330 oh        1 383     -0.594800
     29 O13         3.4940    0.3290    1.1760 oh        1 383     -0.471100
     30 H8         -0.6780    0.7780   -0.6720 ha        1 383      0.140000
     31 H7          1.7870    1.0590   -0.8040 ha        1 383      0.166500
     32 H11         2.2010   -0.6460    3.1670 ha        1 383      0.166500
     33 H10        -0.2830   -0.9270    3.2920 ha        1 383      0.140000
     34 H141       -2.6170    0.3330    0.5870 hc        1 383      0.095700
     35 H142       -2.4700    0.1330    2.3810 hc        1 383      0.095700
     36 H15        -2.2250   -2.2860    2.2330 hx        1 383      0.119700
     37 H19        -5.9050    0.8380    3.3340 ho        1 383      0.432000
     38 H20        -6.6250   -2.1110    1.3670 h1        1 383      0.151700
     39 H161       -1.8290   -3.4290    0.3290 hn        1 383      0.472133
     40 H162       -1.0020   -2.0160   -0.0530 hn        1 383      0.472133
     41 H6         -8.0340   -1.8470    3.4250 h1        1 383      0.119700
     42 H4         -6.4240   -1.6940    6.8890 h2        1 383      0.109700
     43 H3         -6.1060   -4.2110    6.8170 h1        1 383      0.075700
     44 H1         -5.6690   -3.8580    3.1550 h1        1 383      0.063700
     45 H28        -6.5590    0.2180    5.6220 ho        1 383      0.430000
     46 H29        -7.1840   -6.0740    5.4460 ho        1 383      0.428000
     47 H301       -9.1150   -3.5300    4.5490 h1        1 383      0.082700
     48 H302       -8.8280   -4.5020    6.0850 h1        1 383      0.082700
     49 H32        -4.1520   -3.4430    6.0970 ho        1 383      0.415000
     50 H64        -7.6330   -5.0020    2.4690 ho        1 383      0.439000
     51 H13         3.7720    0.7920    0.3690 ho        1 383      0.440000
     52 H192       -4.3850   -1.2150    3.1130 hn        1 383      0.339500
     53 H163       -2.5350   -2.3170   -0.6950 hn        1 383      0.472133
@<TRIPOS>BOND
     1    1    2 ar  
     2    1    6 ar  
     3    1   30 1   
     4    2    3 ar  
     5    2   31 1   
     6    3    4 ar  
     7    3   29 1   
     8    4    5 ar  
     9    4   32 1   
    10    5    6 ar  
    11    5   33 1   
    12    6    7 1   
    13    7    8 1   
    14    7   34 1   
    15    7   35 1   
    16    8    9 1   
    17    8   15 1   
    18    8   36 1   
    19    9   10 1   
    20    9   14 2   
    21   10   11 1   
    22   10   52 1   
    23   11   12 1   
    24   11   17 1   
    25   11   38 1   
    26   12   13 1   
    27   12   16 2   
    28   13   37 1   
    29   15   39 1   
    30   15   40 1   
    31   15   53 1   
    32   17   18 1   
    33   17   22 1   
    34   17   41 1   
    35   18   19 1   
    36   18   23 1   
    37   19   20 1   
    38   19   26 1   
    39   19   42 1   
    40   20   21 1   
    41   20   27 1   
    42   20   43 1   
    43   21   22 1   
    44   21   24 1   
    45   21   25 1   
    46   22   28 1   
    47   22   44 1   
    48   23   45 1   
    49   24   46 1   
    50   25   26 1   
    51   25   47 1   
    52   25   48 1   
    53   27   49 1   
    54   28   50 1   
    55   29   51 1   
@<TRIPOS>SUBSTRUCTURE
     1 383         1 TEMP              0 ****  ****    0 ROOT
