@<TRIPOS>MOLECULE
383
   53    55     1     0     0
SMALL
bcc


@<TRIPOS>ATOM
      1 C8         -0.0490    0.4580    0.1880 ca        1 383     -0.085500
      2 C7          1.3310    0.6220    0.1100 ca        1 383     -0.181000
      3 C12         2.1360    0.1980    1.1790 ca        1 383      0.169100
      4 C11         1.5580   -0.3890    2.3240 ca        1 383     -0.181000
      5 C10         0.1820   -0.5420    2.3820 ca        1 383     -0.085500
      6 C9         -0.6340   -0.1330    1.3150 ca        1 383     -0.221300
      7 C14        -2.1110   -0.2590    1.4110 c3        1 383     -0.041100
      8 C15        -2.5650   -1.7230    1.2940 c3        1 383      0.035500
      9 C17        -4.1120   -1.7760    1.1610 c         1 383      0.647100
     10 N19        -4.8390   -1.4090    2.2540 n         1 383     -0.520900
     11 C20        -6.2860   -1.4310    2.2390 c3        1 383      0.009700
     12 C21        -6.8860   -0.0470    1.9740 c         1 383      0.618100
     13 O23        -6.4050    1.0700    2.5840 oh        1 383     -0.565100
     14 O18        -4.6030   -2.1230    0.0670 o         1 383     -0.590100
     15 N16        -1.9410   -2.3970    0.1060 n4        1 383     -0.835600
     16 O22        -7.7860    0.1580    1.1650 o         1 383     -0.448000
     17 C6         -6.9200   -2.0540    3.5170 c3        1 383      0.140500
     18 N5         -6.3800   -1.4510    4.7710 n3        1 383     -0.498100
     19 C4         -6.6930   -2.2900    5.9650 c3        1 383      0.280300
     20 C3         -6.0330   -3.6990    5.8190 c3        1 383      0.093100
     21 C2         -7.0320   -4.2780    4.7760 c3        1 383      0.087800
     22 C1         -6.7300   -3.5950    3.4260 c3        1 383      0.167100
     23 O28        -6.9550   -0.2350    4.8760 oh        1 383     -0.415300
     24 O29        -6.9550   -5.6620    4.5710 oh        1 383     -0.568800
     25 C30        -8.3830   -3.7900    5.3500 c3        1 383      0.082400
     26 O31        -8.0960   -2.5900    6.0930 os        1 383     -0.399600
     27 O32        -4.7180   -3.6970    5.3250 oh        1 383     -0.577800
     28 O64        -7.6270   -4.0180    2.4170 oh        1 383     -0.594800
     29 O13         3.4970    0.3140    1.1830 oh        1 383     -0.471100
     30 H8         -0.6810    0.8250   -0.6360 ha        1 383      0.140000
     31 H7          1.7840    1.0980   -0.7730 ha        1 383      0.166500
     32 H11         2.2080   -0.7000    3.1570 ha        1 383      0.166500
     33 H10        -0.2770   -0.9730    3.2860 ha        1 383      0.140000
     34 H141       -2.6160    0.3600    0.6210 hc        1 383      0.095700
     35 H142       -2.4620    0.1210    2.4090 hc        1 383      0.095700
     36 H15        -2.2310   -2.2960    2.2100 hx        1 383      0.119700
     37 H19        -5.8910    0.8360    3.3680 ho        1 383      0.432000
     38 H20        -6.6330   -2.0850    1.3690 h1        1 383      0.151700
     39 H161       -1.0160   -1.9840   -0.0750 hn        1 383      0.472133
     40 H162       -2.5530   -2.2630   -0.7170 hn        1 383      0.472133
     41 H6         -8.0340   -1.8420    3.4350 h1        1 383      0.120700
     42 H4         -6.4100   -1.7320    6.8950 h2        1 383      0.109700
     43 H3         -6.1010   -4.2500    6.7930 h1        1 383      0.075700
     44 H1         -5.6760   -3.8570    3.1340 h1        1 383      0.063700
     45 H28        -6.5440    0.1940    5.6500 ho        1 383      0.430000
     46 H29        -7.1890   -6.0930    5.4050 ho        1 383      0.428000
     47 H301       -9.1160   -3.5340    4.5440 h1        1 383      0.082700
     48 H302       -8.8260   -4.5240    6.0680 h1        1 383      0.082700
     49 H32        -4.1470   -3.4810    6.0750 ho        1 383      0.415000
     50 H64        -7.6460   -4.9860    2.4430 ho        1 383      0.439000
     51 H13         3.7730    0.7940    0.3850 ho        1 383      0.440000
     52 H192       -4.3820   -1.2270    3.1190 hn        1 383      0.339500
     53 H163       -1.8490   -3.4000    0.2800 hn        1 383      0.472133
@<TRIPOS>BOND
     1    1    2 ar  
     2    1    6 ar  
     3    1   30 1   
     4    2    3 ar  
     5    2   31 1   
     6    3    4 ar  
     7    3   29 1   
     8    4    5 ar  
     9    4   32 1   
    10    5    6 ar  
    11    5   33 1   
    12    6    7 1   
    13    7    8 1   
    14    7   34 1   
    15    7   35 1   
    16    8    9 1   
    17    8   15 1   
    18    8   36 1   
    19    9   10 1   
    20    9   14 2   
    21   10   11 1   
    22   10   52 1   
    23   11   12 1   
    24   11   17 1   
    25   11   38 1   
    26   12   13 1   
    27   12   16 2   
    28   13   37 1   
    29   15   39 1   
    30   15   40 1   
    31   15   53 1   
    32   17   18 1   
    33   17   22 1   
    34   17   41 1   
    35   18   19 1   
    36   18   23 1   
    37   19   20 1   
    38   19   26 1   
    39   19   42 1   
    40   20   21 1   
    41   20   27 1   
    42   20   43 1   
    43   21   22 1   
    44   21   24 1   
    45   21   25 1   
    46   22   28 1   
    47   22   44 1   
    48   23   45 1   
    49   24   46 1   
    50   25   26 1   
    51   25   47 1   
    52   25   48 1   
    53   27   49 1   
    54   28   50 1   
    55   29   51 1   
@<TRIPOS>SUBSTRUCTURE
     1 383         1 TEMP              0 ****  ****    0 ROOT
