@<TRIPOS>MOLECULE
383
   53    55     1     0     0
SMALL
bcc


@<TRIPOS>ATOM
      1 C8         -0.0440    0.4510    0.1860 ca        1 383     -0.086000
      2 C7          1.3360    0.6060    0.1040 ca        1 383     -0.181000
      3 C12         2.1430    0.1710    1.1680 ca        1 383      0.169100
      4 C11         1.5650   -0.4190    2.3110 ca        1 383     -0.181000
      5 C10         0.1880   -0.5620    2.3740 ca        1 383     -0.086000
      6 C9         -0.6290   -0.1420    1.3120 ca        1 383     -0.221300
      7 C14        -2.1060   -0.2590    1.4130 c3        1 383     -0.041100
      8 C15        -2.5710   -1.7190    1.2890 c3        1 383      0.035500
      9 C17        -4.1190   -1.7610    1.1620 c         1 383      0.647100
     10 N19        -4.8380   -1.3970    2.2610 ns        1 383     -0.520900
     11 C20        -6.2860   -1.4090    2.2530 c3        1 383      0.009700
     12 C21        -6.8780   -0.0180    2.0040 c         1 383      0.618100
     13 O23        -6.3860    1.0890    2.6230 oh        1 383     -0.565100
     14 O18        -4.6170   -2.0960    0.0680 o         1 383     -0.590100
     15 N16        -1.9560   -2.3900    0.0940 nz        1 383     -0.835600
     16 O22        -7.7790    0.2000    1.2010 o         1 383     -0.448000
     17 C6         -6.9180   -2.0400    3.5280 c3        1 383      0.140500
     18 N5         -6.3680   -1.4540    4.7850 n3        1 383     -0.498100
     19 C4         -6.6820   -2.3020    5.9710 c3        1 383      0.280300
     20 C3         -6.0330   -3.7140    5.8090 c3        1 383      0.093100
     21 C2         -7.0400   -4.2760    4.7650 c3        1 383      0.087800
     22 C1         -6.7400   -3.5810    3.4210 c3        1 383      0.167100
     23 O28        -6.9340   -0.2350    4.9050 oh        1 383     -0.415300
     24 O29        -6.9750   -5.6580    4.5460 oh        1 383     -0.568800
     25 C30        -8.3860   -3.7830    5.3500 c3        1 383      0.082400
     26 O31        -8.0870   -2.5930    6.1030 os        1 383     -0.399600
     27 O32        -4.7200   -3.7170    5.3100 oh        1 383     -0.577800
     28 O64        -7.6440   -3.9880    2.4110 oh        1 383     -0.594800
     29 O13         3.5050    0.2770    1.1660 oh        1 383     -0.471100
     30 H8         -0.6770    0.8270   -0.6330 ha        1 383      0.140000
     31 H7          1.7900    1.0840   -0.7780 ha        1 383      0.166500
     32 H11         2.2160   -0.7390    3.1400 ha        1 383      0.166500
     33 H10        -0.2700   -0.9950    3.2770 ha        1 383      0.140000
     34 H141       -2.6100    0.3680    0.6290 hc        1 383      0.095700
     35 H142       -2.4510    0.1170    2.4150 hc        1 383      0.095700
     36 H15        -2.2360   -2.3000    2.2000 hx        1 383      0.119700
     37 H19        -5.8700    0.8440    3.4020 ho        1 383      0.432000
     38 H20        -6.6400   -2.0530    1.3780 h1        1 383      0.151700
     39 H161       -2.5710   -2.2470   -0.7250 hn        1 383      0.472133
     40 H162       -1.8700   -3.3950    0.2610 hn        1 383      0.472133
     41 H6         -8.0300   -1.8190    3.4520 h1        1 383      0.120700
     42 H4         -6.3910   -1.7560    6.9060 h2        1 383      0.109700
     43 H3         -6.1010   -4.2740    6.7780 h1        1 383      0.075700
     44 H1         -5.6890   -3.8490    3.1210 h1        1 383      0.063700
     45 H28        -6.5160    0.1840    5.6810 ho        1 383      0.430000
     46 H29        -7.2080   -6.0960    5.3770 ho        1 383      0.428000
     47 H301       -8.8310   -4.5220    6.0620 h1        1 383      0.082700
     48 H302       -9.1200   -3.5140    4.5500 h1        1 383      0.082700
     49 H32        -4.1440   -3.5120    6.0590 ho        1 383      0.415000
     50 H64        -7.6700   -4.9560    2.4280 ho        1 383      0.439000
     51 H13         3.7810    0.7600    0.3700 ho        1 383      0.440000
     52 H192       -4.3770   -1.2240    3.1250 hn        1 383      0.339500
     53 H163       -1.0300   -1.9820   -0.0880 hn        1 383      0.472133
@<TRIPOS>BOND
     1    1    2 ar  
     2    1    6 ar  
     3    1   30 1   
     4    2    3 ar  
     5    2   31 1   
     6    3    4 ar  
     7    3   29 1   
     8    4    5 ar  
     9    4   32 1   
    10    5    6 ar  
    11    5   33 1   
    12    6    7 1   
    13    7    8 1   
    14    7   34 1   
    15    7   35 1   
    16    8    9 1   
    17    8   15 1   
    18    8   36 1   
    19    9   10 1   
    20    9   14 2   
    21   10   11 1   
    22   10   52 1   
    23   11   12 1   
    24   11   17 1   
    25   11   38 1   
    26   12   13 1   
    27   12   16 2   
    28   13   37 1   
    29   15   39 1   
    30   15   40 1   
    31   15   53 1   
    32   17   18 1   
    33   17   22 1   
    34   17   41 1   
    35   18   19 1   
    36   18   23 1   
    37   19   20 1   
    38   19   26 1   
    39   19   42 1   
    40   20   21 1   
    41   20   27 1   
    42   20   43 1   
    43   21   22 1   
    44   21   24 1   
    45   21   25 1   
    46   22   28 1   
    47   22   44 1   
    48   23   45 1   
    49   24   46 1   
    50   25   26 1   
    51   25   47 1   
    52   25   48 1   
    53   27   49 1   
    54   28   50 1   
    55   29   51 1   
@<TRIPOS>SUBSTRUCTURE
     1 383         1 TEMP              0 ****  ****    0 ROOT
