@<TRIPOS>MOLECULE
383
   51    50     1     0     0
SMALL
bcc


@<TRIPOS>ATOM
      1 C8          3.8530   -3.3790    2.1370 c1        1 383     -0.039500
      2 C7          4.9680   -3.7000    2.9020 c1        1 383     -0.161500
      3 C12         5.0220   -3.3340    4.2380 c1        1 383      0.089600
      4 C11         3.9620   -2.6460    4.8120 c1        1 383     -0.059500
      5 C10         2.8470   -2.3240    4.0490 c1        1 383     -0.059500
      6 C9          2.7930   -2.6900    2.7100 c1        1 383     -0.057100
      7 C14         1.5240   -2.4100    1.8880 c3        1 383     -0.061300
      8 C15         1.6810   -1.0880    1.1460 c3        1 383      0.096500
      9 C17         0.3140   -0.4400    0.9640 c         1 383      0.605100
     10 N19        -0.1540   -0.0930   -0.3690 n         1 383     -0.471900
     11 C20        -0.8020    1.1780   -0.6000 c3        1 383     -0.045300
     12 C21        -1.0880    1.8360    0.7100 c         1 383      0.899600
     13 O23        -1.8910    1.2980    1.5240 o         1 383     -0.834800
     14 O18        -0.3620   -0.1680    1.9330 o         1 383     -0.627100
     15 N16         2.5150   -0.2270    1.8900 n3        1 383     -0.907800
     16 O22        -0.4720    2.8780    1.0340 o         1 383     -0.834800
     17 C6         -2.1050    0.9560   -1.3490 c3        1 383      0.121500
     18 N5         -1.7350    0.4040   -2.9340 n3        1 383     -0.468100
     19 C4         -2.1340    1.0430   -3.7980 c3        1 383      0.323300
     20 C3         -3.1930    1.6320   -3.6140 c3        1 383      0.069100
     21 C2         -3.1250    2.5800   -2.5980 c3        1 383      0.086800
     22 C1         -2.8010    2.0620   -1.3080 c3        1 383      0.131100
     23 O28        -2.1670   -0.8830   -3.0810 oh        1 383     -0.445300
     24 O29        -4.2580    3.4360   -2.5790 oh        1 383     -0.588800
     25 C30        -2.2590    3.0770   -2.9370 c3        1 383      0.116400
     26 O31        -1.5200    1.7570   -3.9270 os        1 383     -0.414600
     27 O32        -3.6100    2.3960   -5.0090 oh        1 383     -0.582800
     28 O64        -4.1490    1.7770   -0.5310 oh        1 383     -0.646800
     29 O13         6.1540   -3.6600    5.0140 oh        1 383     -0.491600
     30 H8          3.8150   -3.6380    1.1930 ha        1 383      0.073500
     31 H7          5.7110   -4.1820    2.5000 ha        1 383      0.065500
     32 H11         4.0010   -2.3870    5.7560 ha        1 383      0.089000
     33 H10         2.0720   -1.9070    4.4700 ha        1 383      0.089000
     34 H141        1.3890   -3.1280    1.2450 hc        1 383      0.061700
     35 H142        0.7540   -2.3580    2.4850 hc        1 383      0.061700
     36 H15         2.0820   -1.2530    0.2710 h1        1 383      0.062700
     37 H19        -0.0240   -0.6730   -1.0650 hn        1 383      0.281500
     38 H20        -0.2120    1.7540   -1.1330 h1        1 383      0.050700
     39 H161        2.0290    0.4990    2.1750 hn        1 383      0.374800
     40 H162        3.2130    0.0590    1.3600 hn        1 383      0.374800
     41 H6         -2.6110    0.2550   -0.8890 h1        1 383      0.100700
     42 H4         -2.1920    0.4990   -4.6180 h2        1 383      0.104700
     43 H3         -3.8850    0.9780   -3.3910 h1        1 383      0.120700
     44 H1         -2.2910    2.7370   -0.8180 h1        1 383      0.081700
     45 H28        -1.6010   -1.3270   -3.6020 ho        1 383      0.447000
     46 H29        -4.0390    4.2070   -2.2000 ho        1 383      0.431000
     47 H301       -1.6770    3.3280   -2.1890 h1        1 383      0.057700
     48 H302       -2.4880    3.8530   -3.4930 h1        1 383      0.057700
     49 H32        -4.3650    2.0470   -5.3240 ho        1 383      0.402000
     50 H64        -4.2840    2.4160    0.0720 ho        1 383      0.462000
     51 H13         6.7910   -3.0500    4.8810 ho        1 383      0.410000
@<TRIPOS>BOND
     1    1    6 3   
     2    1   30 1   
     3    2    3 3   
     4    2   31 1   
     5    3   29 1   
     6    4    5 3   
     7    4   32 1   
     8    5   33 1   
     9    6    7 1   
    10    7    8 1   
    11    7   34 1   
    12    7   35 1   
    13    8    9 1   
    14    8   15 1   
    15    8   36 1   
    16    9   10 1   
    17    9   14 2   
    18   10   11 1   
    19   10   37 1   
    20   11   12 1   
    21   11   17 1   
    22   11   38 1   
    23   12   13 1   
    24   12   16 1   
    25   15   39 1   
    26   15   40 1   
    27   17   18 1   
    28   17   22 1   
    29   17   41 1   
    30   18   19 1   
    31   18   23 1   
    32   19   20 1   
    33   19   26 1   
    34   19   42 1   
    35   20   21 1   
    36   20   27 1   
    37   20   43 1   
    38   21   22 1   
    39   21   24 1   
    40   21   25 1   
    41   22   28 1   
    42   22   44 1   
    43   23   45 1   
    44   24   46 1   
    45   25   26 1   
    46   25   47 1   
    47   25   48 1   
    48   27   49 1   
    49   28   50 1   
    50   29   51 1   
@<TRIPOS>SUBSTRUCTURE
     1 383         1 TEMP              0 ****  ****    0 ROOT
