@<TRIPOS>MOLECULE
384
   59    61     1     0     0
SMALL
bcc


@<TRIPOS>ATOM
      1 CBA         0.3150   -1.0580   -0.3260 c3        1 384      0.117700
      2 OAZ         1.6590   -1.0340    0.1230 os        1 384     -0.428600
      3 CAY         1.8480   -0.1670    1.2400 c3        1 384      0.120400
      4 CAX         3.3530   -0.0500    1.4580 c3        1 384      0.108400
      5 OAW         3.7650    1.1450    0.7870 os        1 384     -0.421600
      6 CAF         5.1110    1.1300    0.3350 c3        1 384      0.112100
      7 CAA         5.2320    2.1790   -0.7850 c3        1 384      0.109000
      8 NAB         4.8510    3.5390   -0.5240 n         1 384     -0.456800
      9 CBB         3.7210    4.0620   -1.2660 c3        1 384      0.089000
     10 CBC         2.3580    3.6080   -0.7180 c3        1 384      0.096400
     11 OBD         1.4480    3.7480   -1.8100 os        1 384     -0.428600
     12 CBE         0.1250    3.3870   -1.4540 c3        1 384      0.120700
     13 C           5.4800    4.3540    0.4020 c         1 384      0.687500
     14 O           5.2820    5.5840    0.4220 o         1 384     -0.629500
     15 CA          6.4660    3.7680    1.4430 c3        1 384      0.182500
     16 CB          7.8300    3.5330    0.7710 c3        1 384     -0.083400
     17 CAH         8.4740    2.2410    1.2200 c3        1 384     -0.071400
     18 CAI         7.5400    1.0630    1.0450 c3        1 384     -0.087400
     19 CAE         6.0990    1.3470    1.5120 c3        1 384      0.202500
     20 N           5.9330    2.6330    2.1500 n3        1 384     -0.787500
     21 SAK         5.1720    2.7800    3.5910 sy        1 384      1.511200
     22 OAL         4.2380    3.8270    3.5760 o         1 384     -0.641800
     23 OAM         4.7060    1.5130    4.0100 o         1 384     -0.641800
     24 CAN         6.4400    3.2440    4.6310 ca        1 384     -0.350500
     25 CAS         6.6790    4.5960    4.8930 ca        1 384     -0.019500
     26 CAR         7.7000    4.9720    5.7700 ca        1 384     -0.003600
     27 CL1         7.9840    6.6160    6.0790 cl        1 384     -0.069400
     28 CAQ         8.4900    4.0050    6.4000 ca        1 384     -0.065000
     29 CAP         8.2400    2.6540    6.1420 ca        1 384     -0.003600
     30 CL2         9.1840    1.4670    6.9040 cl        1 384     -0.069400
     31 CAO         7.2200    2.2740    5.2660 ca        1 384     -0.019500
     32 H1          0.3180   -1.7830   -1.1780 h1        1 384      0.033033
     33 H2         -0.0010   -0.0440   -0.6760 h1        1 384      0.033033
     34 H3         -0.3670   -1.4100    0.4860 h1        1 384      0.033033
     35 H4          1.3610   -0.6190    2.1440 h1        1 384      0.045700
     36 H5          1.3990    0.8410    1.0300 h1        1 384      0.045700
     37 H6          3.5780    0.0690    2.5520 h1        1 384      0.063700
     38 H7          3.8790   -0.9510    1.0470 h1        1 384      0.063700
     39 H8          5.3540    0.1260   -0.1220 h1        1 384      0.054700
     40 H9          6.3120    2.1670   -1.1170 h1        1 384      0.058700
     41 H10         4.5970    1.8010   -1.6390 h1        1 384      0.058700
     42 H11         3.8040    3.7320   -2.3410 h1        1 384      0.074200
     43 H12         3.7600    5.1890   -1.2470 h1        1 384      0.074200
     44 H13         2.3770    2.5370   -0.3800 h1        1 384      0.049700
     45 H14         2.0340    4.2610    0.1340 h1        1 384      0.049700
     46 H15        -0.2580    4.0460   -0.6360 h1        1 384      0.031033
     47 H16        -0.4680    3.5360   -2.3900 h1        1 384      0.031033
     48 H17         0.0830    2.3170   -1.1280 h1        1 384      0.031033
     49 H18         6.5960    4.6000    2.2090 h1        1 384      0.080700
     50 H19         7.7150    3.5270   -0.3440 hc        1 384      0.059200
     51 H20         8.4990    4.3970    1.0260 hc        1 384      0.059200
     52 H21         8.7770    2.3260    2.2970 hc        1 384      0.049700
     53 H22         9.4100    2.0650    0.6280 hc        1 384      0.049700
     54 H23         7.9370    0.1910    1.6270 hc        1 384      0.049200
     55 H24         7.5320    0.7560   -0.0340 hc        1 384      0.049200
     56 H25         5.8320    0.5570    2.2850 h1        1 384      0.078700
     57 H26         6.0420    5.3670    4.4170 ha        1 384      0.173500
     58 H27         9.2940    4.3040    7.0930 ha        1 384      0.167000
     59 H28         7.0130    1.2030    5.0860 ha        1 384      0.173500
@<TRIPOS>BOND
     1    1    2 1   
     2    1   32 1   
     3    1   33 1   
     4    1   34 1   
     5    2    3 1   
     6    3    4 1   
     7    3   35 1   
     8    3   36 1   
     9    4    5 1   
    10    4   37 1   
    11    4   38 1   
    12    5    6 1   
    13    6    7 1   
    14    6   19 1   
    15    6   39 1   
    16    7    8 1   
    17    7   40 1   
    18    7   41 1   
    19    8    9 1   
    20    8   13 1   
    21    9   10 1   
    22    9   42 1   
    23    9   43 1   
    24   10   11 1   
    25   10   44 1   
    26   10   45 1   
    27   11   12 1   
    28   12   46 1   
    29   12   47 1   
    30   12   48 1   
    31   13   14 2   
    32   13   15 1   
    33   15   16 1   
    34   15   20 1   
    35   15   49 1   
    36   16   17 1   
    37   16   50 1   
    38   16   51 1   
    39   17   18 1   
    40   17   52 1   
    41   17   53 1   
    42   18   19 1   
    43   18   54 1   
    44   18   55 1   
    45   19   20 1   
    46   19   56 1   
    47   20   21 1   
    48   21   22 2   
    49   21   23 2   
    50   21   24 1   
    51   24   25 ar  
    52   24   31 ar  
    53   25   26 ar  
    54   25   57 1   
    55   26   27 1   
    56   26   28 ar  
    57   28   29 ar  
    58   28   58 1   
    59   29   30 1   
    60   29   31 ar  
    61   31   59 1   
@<TRIPOS>SUBSTRUCTURE
     1 384         1 TEMP              0 ****  ****    0 ROOT
