@<TRIPOS>MOLECULE
384
   59    61     1     0     0
SMALL
bcc


@<TRIPOS>ATOM
      1 CBA         0.3380   -1.0760   -0.3510 c3        1 384      0.117700
      2 OAZ         1.6790   -1.0460    0.1040 os        1 384     -0.428600
      3 CAY         1.8590   -0.1790    1.2240 c3        1 384      0.120400
      4 CAX         3.3620   -0.0550    1.4480 c3        1 384      0.108400
      5 OAW         3.7720    1.1430    0.7820 os        1 384     -0.421600
      6 CAF         5.1200    1.1350    0.3340 c3        1 384      0.112100
      7 CAA         5.2400    2.1880   -0.7830 c3        1 384      0.109000
      8 NAB         4.8510    3.5450   -0.5210 n         1 384     -0.456800
      9 CBB         3.7220    4.0650   -1.2660 c3        1 384      0.089000
     10 CBC         2.3590    3.6030   -0.7250 c3        1 384      0.096400
     11 OBD         1.4530    3.7390   -1.8200 os        1 384     -0.428600
     12 CBE         0.1310    3.3700   -1.4710 c3        1 384      0.120700
     13 C           5.4740    4.3610    0.4090 c         1 384      0.687500
     14 O           5.2700    5.5900    0.4320 o         1 384     -0.629500
     15 CA          6.4580    3.7770    1.4520 c3        1 384      0.182500
     16 CB          7.8270    3.5500    0.7850 c3        1 384     -0.083400
     17 CAH         8.4750    2.2590    1.2330 c3        1 384     -0.071400
     18 CAI         7.5460    1.0770    1.0520 c3        1 384     -0.087400
     19 CAE         6.1020    1.3540    1.5150 c3        1 384      0.202500
     20 N           5.9280    2.6370    2.1550 n3        1 384     -0.787500
     21 SAK         5.1630    2.7780    3.5940 sy        1 384      1.511200
     22 OAL         4.2250    3.8210    3.5790 o         1 384     -0.641800
     23 OAM         4.7000    1.5080    4.0080 o         1 384     -0.641800
     24 CAN         6.4260    3.2430    4.6390 ca        1 384     -0.350500
     25 CAS         6.6600    4.5950    4.9060 ca        1 384     -0.019500
     26 CAR         7.6760    4.9720    5.7880 ca        1 384     -0.003600
     27 Cl1         7.9540    6.6160    6.1020 cl        1 384     -0.069400
     28 CAQ         8.4680    4.0060    6.4170 ca        1 384     -0.065000
     29 CAP         8.2230    2.6550    6.1540 ca        1 384     -0.003600
     30 Cl2         9.1690    1.4690    6.9150 cl        1 384     -0.069400
     31 CAO         7.2080    2.2730    5.2740 ca        1 384     -0.019500
     32 H1          0.0180   -0.0620   -0.7000 h1        1 384      0.033033
     33 H2         -0.3460   -1.4320    0.4580 h1        1 384      0.033033
     34 H3          0.3480   -1.7990   -1.2040 h1        1 384      0.033033
     35 H4          1.4070    0.8270    1.0140 h1        1 384      0.045700
     36 H5          1.3710   -0.6350    2.1240 h1        1 384      0.045700
     37 H6          3.8950   -0.9520    1.0380 h1        1 384      0.063700
     38 H7          3.5820    0.0620    2.5440 h1        1 384      0.063700
     39 H8          5.3680    0.1330   -0.1250 h1        1 384      0.054700
     40 H9          4.6090    1.8080   -1.6410 h1        1 384      0.058700
     41 H10         6.3210    2.1810   -1.1120 h1        1 384      0.058700
     42 H11         3.8110    3.7380   -2.3410 h1        1 384      0.074200
     43 H12         3.7550    5.1910   -1.2430 h1        1 384      0.074200
     44 H13         2.0270    4.2520    0.1270 h1        1 384      0.049700
     45 H14         2.3820    2.5310   -0.3880 h1        1 384      0.049700
     46 H15        -0.2600    4.0260   -0.6540 h1        1 384      0.031033
     47 H16         0.0930    2.2990   -1.1470 h1        1 384      0.031033
     48 H17        -0.4590    3.5170   -2.4090 h1        1 384      0.031033
     49 H18         6.5820    4.6070    2.2200 h1        1 384      0.080700
     50 H19         8.4910    4.4150    1.0440 hc        1 384      0.059200
     51 H20         7.7150    3.5450   -0.3310 hc        1 384      0.059200
     52 H21         9.4140    2.0890    0.6430 hc        1 384      0.049700
     53 H22         8.7730    2.3430    2.3110 hc        1 384      0.049700
     54 H23         7.5430    0.7730   -0.0280 hc        1 384      0.049200
     55 H24         7.9460    0.2050    1.6330 hc        1 384      0.049200
     56 H25         5.8370    0.5600    2.2850 h1        1 384      0.078700
     57 H26         6.0210    5.3650    4.4300 ha        1 384      0.173500
     58 H27         9.2690    4.3050    7.1130 ha        1 384      0.167000
     59 H28         7.0040    1.2030    5.0900 ha        1 384      0.173500
@<TRIPOS>BOND
     1    1    2 1   
     2    1   32 1   
     3    1   33 1   
     4    1   34 1   
     5    2    3 1   
     6    3    4 1   
     7    3   35 1   
     8    3   36 1   
     9    4    5 1   
    10    4   37 1   
    11    4   38 1   
    12    5    6 1   
    13    6    7 1   
    14    6   19 1   
    15    6   39 1   
    16    7    8 1   
    17    7   40 1   
    18    7   41 1   
    19    8    9 1   
    20    8   13 1   
    21    9   10 1   
    22    9   42 1   
    23    9   43 1   
    24   10   11 1   
    25   10   44 1   
    26   10   45 1   
    27   11   12 1   
    28   12   46 1   
    29   12   47 1   
    30   12   48 1   
    31   13   14 2   
    32   13   15 1   
    33   15   16 1   
    34   15   20 1   
    35   15   49 1   
    36   16   17 1   
    37   16   50 1   
    38   16   51 1   
    39   17   18 1   
    40   17   52 1   
    41   17   53 1   
    42   18   19 1   
    43   18   54 1   
    44   18   55 1   
    45   19   20 1   
    46   19   56 1   
    47   20   21 1   
    48   21   22 2   
    49   21   23 2   
    50   21   24 1   
    51   24   25 ar  
    52   24   31 ar  
    53   25   26 ar  
    54   25   57 1   
    55   26   27 1   
    56   26   28 ar  
    57   28   29 ar  
    58   28   58 1   
    59   29   30 1   
    60   29   31 ar  
    61   31   59 1   
@<TRIPOS>SUBSTRUCTURE
     1 384         1 TEMP              0 ****  ****    0 ROOT
