@<TRIPOS>MOLECULE
384
   59    61     1     0     0
SMALL
bcc


@<TRIPOS>ATOM
      1 CBA         0.3220   -1.0660   -0.3290 c3        1 384      0.117700
      2 OAZ         1.6660   -1.0380    0.1170 os        1 384     -0.428600
      3 CAY         1.8540   -0.1750    1.2380 c3        1 384      0.120400
      4 CAX         3.3590   -0.0520    1.4520 c3        1 384      0.108400
      5 OAW         3.7640    1.1470    0.7870 os        1 384     -0.421600
      6 CAF         5.1090    1.1390    0.3280 c3        1 384      0.112100
      7 CAA         5.2210    2.1960   -0.7870 c3        1 384      0.109000
      8 NAB         4.8370    3.5530   -0.5160 n         1 384     -0.456800
      9 CBB         3.7020    4.0760   -1.2500 c3        1 384      0.089000
     10 CBC         2.3430    3.6140   -0.7000 c3        1 384      0.096400
     11 OBD         1.4280    3.7540   -1.7880 os        1 384     -0.428600
     12 CBE         0.1090    3.3840   -1.4290 c3        1 384      0.120700
     13 C           5.4680    4.3640    0.4110 c         1 384      0.687500
     14 O           5.2660    5.5940    0.4400 o         1 384     -0.629500
     15 CA          6.4600    3.7760    1.4440 c3        1 384      0.182500
     16 CB          7.8220    3.5490    0.7650 c3        1 384     -0.083400
     17 CAH         8.4720    2.2560    1.2030 c3        1 384     -0.071400
     18 CAI         7.5410    1.0750    1.0250 c3        1 384     -0.087400
     19 CAE         6.1010    1.3530    1.5010 c3        1 384      0.202500
     20 N           5.9340    2.6350    2.1470 n3        1 384     -0.787500
     21 SAK         5.1810    2.7710    3.5940 sy        1 384      1.511200
     22 OAL         4.2450    3.8170    3.5900 o         1 384     -0.641800
     23 OAM         4.7190    1.5010    4.0060 o         1 384     -0.641800
     24 CAN         6.4540    3.2290    4.6300 ca        1 384     -0.350500
     25 CAS         6.6920    4.5800    4.8990 ca        1 384     -0.019500
     26 CAR         7.7170    4.9520    5.7740 ca        1 384     -0.003600
     27 CL1         8.0020    6.5940    6.0920 cl        1 384     -0.069400
     28 CAQ         8.5110    3.9820    6.3930 ca        1 384     -0.065000
     29 CAP         8.2620    2.6320    6.1280 ca        1 384     -0.003600
     30 CL2         9.2110    1.4410    6.8770 cl        1 384     -0.069400
     31 CAO         7.2380    2.2560    5.2540 ca        1 384     -0.019500
     32 H1         -0.3570   -1.4250    0.4840 h1        1 384      0.033033
     33 H2         -0.0000   -0.0510   -0.6730 h1        1 384      0.033033
     34 H3          0.3260   -1.7870   -1.1840 h1        1 384      0.033033
     35 H4          1.3720   -0.6340    2.1400 h1        1 384      0.045700
     36 H5          1.4010    0.8320    1.0340 h1        1 384      0.045700
     37 H6          3.5870    0.0620    2.5470 h1        1 384      0.063700
     38 H7          3.8880   -0.9490    1.0360 h1        1 384      0.063700
     39 H8          5.3520    0.1390   -0.1370 h1        1 384      0.054700
     40 H9          6.2990    2.1890   -1.1240 h1        1 384      0.058700
     41 H10         4.5830    1.8200   -1.6400 h1        1 384      0.058700
     42 H11         3.7820    3.7530   -2.3280 h1        1 384      0.074200
     43 H12         3.7370    5.2030   -1.2240 h1        1 384      0.074200
     44 H13         2.0180    4.2620    0.1560 h1        1 384      0.049700
     45 H14         2.3680    2.5410   -0.3660 h1        1 384      0.049700
     46 H15        -0.2760    4.0380   -0.6080 h1        1 384      0.031033
     47 H16        -0.4880    3.5340   -2.3630 h1        1 384      0.031033
     48 H17         0.0730    2.3120   -1.1080 h1        1 384      0.031033
     49 H18         6.5920    4.6030    2.2140 h1        1 384      0.080700
     50 H19         8.4900    4.4130    1.0210 hc        1 384      0.059200
     51 H20         7.7010    3.5480   -0.3500 hc        1 384      0.059200
     52 H21         9.4060    2.0870    0.6050 hc        1 384      0.049700
     53 H22         8.7800    2.3360    2.2790 hc        1 384      0.049700
     54 H23         7.5280    0.7750   -0.0550 hc        1 384      0.049200
     55 H24         7.9440    0.2020    1.6010 hc        1 384      0.049200
     56 H25         5.8410    0.5570    2.2710 h1        1 384      0.078700
     57 H26         6.0520    5.3530    4.4320 ha        1 384      0.173500
     58 H27         9.3190    4.2770    7.0840 ha        1 384      0.167000
     59 H28         7.0310    1.1870    5.0680 ha        1 384      0.173500
@<TRIPOS>BOND
     1    1    2 1   
     2    1   32 1   
     3    1   33 1   
     4    1   34 1   
     5    2    3 1   
     6    3    4 1   
     7    3   35 1   
     8    3   36 1   
     9    4    5 1   
    10    4   37 1   
    11    4   38 1   
    12    5    6 1   
    13    6    7 1   
    14    6   19 1   
    15    6   39 1   
    16    7    8 1   
    17    7   40 1   
    18    7   41 1   
    19    8    9 1   
    20    8   13 1   
    21    9   10 1   
    22    9   42 1   
    23    9   43 1   
    24   10   11 1   
    25   10   44 1   
    26   10   45 1   
    27   11   12 1   
    28   12   46 1   
    29   12   47 1   
    30   12   48 1   
    31   13   14 2   
    32   13   15 1   
    33   15   16 1   
    34   15   20 1   
    35   15   49 1   
    36   16   17 1   
    37   16   50 1   
    38   16   51 1   
    39   17   18 1   
    40   17   52 1   
    41   17   53 1   
    42   18   19 1   
    43   18   54 1   
    44   18   55 1   
    45   19   20 1   
    46   19   56 1   
    47   20   21 1   
    48   21   22 2   
    49   21   23 2   
    50   21   24 1   
    51   24   25 ar  
    52   24   31 ar  
    53   25   26 ar  
    54   25   57 1   
    55   26   27 1   
    56   26   28 ar  
    57   28   29 ar  
    58   28   58 1   
    59   29   30 1   
    60   29   31 ar  
    61   31   59 1   
@<TRIPOS>SUBSTRUCTURE
     1 384         1 TEMP              0 ****  ****    0 ROOT
