@<TRIPOS>MOLECULE
386
   46    48     1     0     0
SMALL
bcc


@<TRIPOS>ATOM
      1 N1         -0.2650    0.5060   -0.0430 ns        1 386     -0.293000
      2 C2         -3.1110    1.3690   -0.8460 c2        1 386      0.012000
      3 O2          0.0920    1.3240   -2.1580 o         1 386     -0.321000
      4 N3          3.0260   -0.3150    4.0080 ns        1 386     -0.282000
      5 C4         -4.4480    1.2320   -1.0870 c2        1 386     -0.238000
      6 N4          6.8930   -1.5160    4.3920 n2        1 386     -0.205000
      7 C5         -4.0090   -0.3990   -2.8970 c3        1 386     -0.234000
      8 C6         -4.9480    0.3900   -2.1110 c1        1 386     -0.056000
      9 C19         8.1180   -1.3320    9.7200 c3        1 386      0.493000
     10 F4          9.2930   -1.9260    9.4420 f         1 386     -0.113500
     11 O4          8.3590   -0.0330   10.2540 os        1 386     -0.211000
     12 C15         7.7450    0.9090    9.4050 c2        1 386     -0.265000
     13 C17         7.7920    2.2280    9.6430 c1        1 386      0.314000
     14 O5          7.3580   -1.1940    8.5310 os        1 386     -0.234000
     15 C16         7.1020    0.1730    8.3090 c2        1 386      0.080000
     16 C18         6.3920    0.6240    7.2670 c2        1 386     -0.118000
     17 C20         5.8050   -0.2110    6.2100 c2        1 386      0.041000
     18 C14         6.7040   -1.2590    5.6240 c2        1 386     -0.057000
     19 N5          4.6070   -0.0020    5.7990 n2        1 386     -0.174000
     20 C13         3.5650   -0.5400    5.2320 c1        1 386      0.059000
     21 C12         3.6560    0.2840    2.9020 c2        1 386      0.359000
     22 O3          4.8710    0.5550    2.9360 o         1 386     -0.341000
     23 C10         2.8540    0.5520    1.6820 c2        1 386     -0.132000
     24 C11         3.4240    1.1070    0.5350 c2        1 386     -0.455000
     25 S           2.3050    1.2990   -0.6620 ss        1 386      0.672000
     26 N2          1.4970    0.2810    1.5940 n2        1 386     -0.149000
     27 C9          1.0610    0.6410    0.3640 c2        1 386     -0.176000
     28 C8         -0.6950    0.8440   -1.3230 c2        1 386      0.363000
     29 C1         -2.1400    0.6230   -1.6000 c2        1 386     -0.210000
     30 C3         -2.5650   -0.2420   -2.5750 c2        1 386      0.143000
     31 O1         -1.5930   -1.0100   -3.1820 os        1 386     -0.250000
     32 C7         -1.8530   -1.6550   -4.4090 c3        1 386      0.547000
     33 F3         -2.7610   -2.6500   -4.2550 f         1 386     -0.131000
     34 F2         -2.2880   -0.7890   -5.3550 f         1 386     -0.131000
     35 F1         -0.6600   -2.1770   -4.7700 f         1 386     -0.131000
     36 H1         -0.9060    0.0800    0.5910 hn        1 386      0.259000
     37 H2         -2.7290    2.0600   -0.0750 ha        1 386      0.149000
     38 H3          2.0760   -0.6140    3.9140 hn        1 386      0.277000
     39 H4         -5.1850    1.7980   -0.4930 ha        1 386      0.164000
     40 H5          6.3880   -0.9730    3.7190 hn        1 386      0.164000
     41 H6         -4.3090   -1.4860   -2.7890 hc        1 386      0.189000
     42 H7         -4.1860   -0.1330   -3.9850 hc        1 386      0.189000
     43 H8          7.2630   -1.8510    6.3800 h4        1 386      0.173000
     44 H9          6.2160    1.7120    7.1800 ha        1 386      0.166000
     45 H11         4.4820    1.3710    0.4630 h4        1 386      0.208000
     46 F5          7.4330   -2.0640   10.6180 f         1 386     -0.113500
@<TRIPOS>BOND
     1    1   27 1   
     2    1   28 1   
     3    1   36 1   
     4    2    5 1   
     5    2   29 1   
     6    2   37 1   
     7    3   28 1   
     8    4   20 1   
     9    4   21 1   
    10    4   38 1   
    11    5    8 1   
    12    5   39 1   
    13    6   18 1   
    14    6   40 1   
    15    7    8 1   
    16    7   30 1   
    17    7   41 1   
    18    7   42 1   
    19    9   10 1   
    20    9   11 1   
    21    9   14 1   
    22    9   46 1   
    23   11   12 1   
    24   12   13 1   
    25   12   15 1   
    26   14   15 1   
    27   15   16 1   
    28   16   17 1   
    29   16   44 1   
    30   17   18 1   
    31   17   19 1   
    32   18   43 1   
    33   19   20 1   
    34   21   22 1   
    35   21   23 1   
    36   23   24 1   
    37   23   26 1   
    38   24   25 1   
    39   24   45 1   
    40   25   27 1   
    41   26   27 1   
    42   28   29 1   
    43   29   30 1   
    44   30   31 1   
    45   31   32 1   
    46   32   33 1   
    47   32   34 1   
    48   32   35 1   
@<TRIPOS>SUBSTRUCTURE
     1 386         1 TEMP              0 ****  ****    0 ROOT
