@<TRIPOS>MOLECULE
386
   46    47     1     0     0
SMALL
bcc


@<TRIPOS>ATOM
      1 N1          0.2930   -1.1130   -0.5470 n         1 386     -0.279000
      2 C2         -2.8290   -1.3440   -2.4960 c2        1 386      0.071000
      3 O2         -0.1710   -2.2360   -2.4820 o         1 386     -0.365000
      4 N3          4.6330   -1.1830    2.4400 n         1 386     -0.282000
      5 C4         -4.1570   -0.8050   -2.6110 c2        1 386     -0.481000
      6 N4          7.0640    1.8980    3.5900 n2        1 386     -0.213000
      7 C5         -2.7240    1.4730   -1.2220 c2        1 386     -0.258000
      8 C6         -4.5640    0.3840   -2.1740 c1        1 386      0.233000
      9 C19         5.5140    2.8170    8.7620 c3        1 386      0.492000
     10 F4          4.2210    3.1400    8.9530 f         1 386     -0.115000
     11 O4          5.9320    1.9150    9.7830 os        1 386     -0.211000
     12 C15         6.3390    0.7160    9.1660 c2        1 386     -0.261000
     13 C17         6.7890   -0.3350    9.8680 c1        1 386      0.310000
     14 O5          5.6700    2.1770    7.5060 os        1 386     -0.235000
     15 C16         6.1680    0.8760    7.7170 c2        1 386      0.062000
     16 C18         6.4090    0.0160    6.7180 c2        1 386     -0.102000
     17 C20         6.2110    0.2890    5.2920 c2        1 386     -0.008000
     18 C14         6.7100    1.5980    4.7780 c2        1 386     -0.047000
     19 N5          5.6700   -0.6050    4.5320 n2        1 386     -0.160000
     20 C13         5.6480   -1.0670    3.3260 c1        1 386      0.057000
     21 C12         4.7690   -2.0020    1.2940 c2        1 386      0.405000
     22 O3          5.8030   -2.6370    1.0540 o         1 386     -0.278000
     23 C10         3.6070   -2.0620    0.3660 c2        1 386     -0.137000
     24 C11         3.6550   -2.8250   -0.8020 c2        1 386     -0.462000
     25 S           2.2420   -2.7230   -1.6480 ss        1 386      0.678000
     26 N2          2.4160   -1.3850    0.5800 n2        1 386     -0.150000
     27 C9          1.5750   -1.6530   -0.4470 c2        1 386     -0.174000
     28 C8         -0.5590   -1.4490   -1.5900 c2        1 386      0.366000
     29 C1         -1.9090   -0.8400   -1.6310 c2        1 386     -0.188000
     30 C3         -2.2720    0.2890   -0.7680 c2        1 386      0.095000
     31 O1         -2.1750   -0.0720    0.5750 os        1 386     -0.271000
     32 C7         -2.4690    0.8530    1.5910 c3        1 386      0.539000
     33 F3         -1.6770    1.9510    1.5180 f         1 386     -0.134333
     34 F2         -3.7690    1.2300    1.5740 f         1 386     -0.134333
     35 F1         -2.2050    0.1820    2.7380 f         1 386     -0.134333
     36 H1         -0.0410   -0.5540    0.2100 hn        1 386      0.268000
     37 H2         -2.5580   -2.1920   -3.1540 ha        1 386      0.172000
     38 H3          3.7470   -0.7350    2.5820 hn        1 386      0.229000
     39 H4         -4.9020   -1.4470   -3.1270 ha        1 386      0.202000
     40 H5          7.0110    1.1780    2.8970 hn        1 386      0.147000
     41 H6         -2.6710    1.7370   -2.2900 ha        1 386      0.162000
     42 H7         -3.0780    2.2710   -0.5550 ha        1 386      0.162000
     43 H8          6.7760    2.3920    5.5530 h4        1 386      0.173000
     44 H9          6.7750   -0.9960    6.9750 ha        1 386      0.165000
     45 H11         4.5300   -3.4100   -1.0960 h4        1 386      0.207000
     46 F5          6.2760    3.9260    8.8050 f         1 386     -0.115000
@<TRIPOS>BOND
     1    1   27 1   
     2    1   28 1   
     3    1   36 1   
     4    2    5 1   
     5    2   29 1   
     6    2   37 1   
     7    3   28 1   
     8    4   20 1   
     9    4   21 1   
    10    4   38 1   
    11    5    8 1   
    12    5   39 1   
    13    6   18 1   
    14    6   40 1   
    15    7   30 1   
    16    7   41 1   
    17    7   42 1   
    18    9   10 1   
    19    9   11 1   
    20    9   14 1   
    21    9   46 1   
    22   11   12 1   
    23   12   13 1   
    24   12   15 1   
    25   14   15 1   
    26   15   16 1   
    27   16   17 1   
    28   16   44 1   
    29   17   18 1   
    30   17   19 1   
    31   18   43 1   
    32   19   20 1   
    33   21   22 1   
    34   21   23 1   
    35   23   24 1   
    36   23   26 1   
    37   24   25 1   
    38   24   45 1   
    39   25   27 1   
    40   26   27 1   
    41   28   29 1   
    42   29   30 1   
    43   30   31 1   
    44   31   32 1   
    45   32   33 1   
    46   32   34 1   
    47   32   35 1   
@<TRIPOS>SUBSTRUCTURE
     1 386         1 TEMP              0 ****  ****    0 ROOT
