@<TRIPOS>MOLECULE
386
   46    48     1     0     0
SMALL
bcc


@<TRIPOS>ATOM
      1 N1         -0.2580    0.5060   -0.0530 n         1 386     -0.293000
      2 C2         -3.0950    1.3870   -0.8710 c2        1 386      0.012000
      3 O2          0.1100    1.3000   -2.1750 o         1 386     -0.321000
      4 N3          3.0210   -0.3020    4.0120 n         1 386     -0.282000
      5 C4         -4.4320    1.2570   -1.1120 c2        1 386     -0.238000
      6 N4          6.8770   -1.5310    4.4120 n2        1 386     -0.205000
      7 C5         -4.0040   -0.3980   -2.9010 c3        1 386     -0.234000
      8 C6         -4.9370    0.4070   -2.1270 c1        1 386     -0.056000
      9 C19         8.0960   -1.3080    9.7410 c3        1 386      0.493000
     10 F4          9.2670   -1.9140    9.4690 f         1 386     -0.113500
     11 O4          8.3470   -0.0060   10.2620 os        1 386     -0.211000
     12 C15         7.7420    0.9320    9.4040 c2        1 386     -0.265000
     13 C17         7.8000    2.2530    9.6300 c1        1 386      0.314000
     14 O5          7.3390   -1.1750    8.5490 os        1 386     -0.234000
     15 C16         7.0940    0.1920    8.3140 c2        1 386      0.080000
     16 C18         6.3900    0.6390    7.2670 c2        1 386     -0.118000
     17 C20         5.7980   -0.2010    6.2170 c2        1 386      0.041000
     18 C14         6.6880   -1.2620    5.6420 c2        1 386     -0.057000
     19 N5          4.6020    0.0150    5.8020 n2        1 386     -0.174000
     20 C13         3.5560   -0.5200    5.2380 c1        1 386      0.059000
     21 C12         3.6580    0.2810    2.9000 c2        1 386      0.359000
     22 O3          4.8740    0.5430    2.9350 o         1 386     -0.341000
     23 C10         2.8600    0.5440    1.6770 c2        1 386     -0.132000
     24 C11         3.4360    1.0830    0.5260 c2        1 386     -0.455000
     25 S           2.3200    1.2730   -0.6750 ss        1 386      0.672000
     26 N2          1.5010    0.2830    1.5900 n2        1 386     -0.149000
     27 C9          1.0700    0.6350    0.3550 c2        1 386     -0.176000
     28 C8         -0.6830    0.8350   -1.3370 c2        1 386      0.363000
     29 C1         -2.1280    0.6230   -1.6140 c2        1 386     -0.210000
     30 C3         -2.5590   -0.2510   -2.5790 c2        1 386      0.143000
     31 O1         -1.5930   -1.0340   -3.1750 os        1 386     -0.250000
     32 C7         -1.8570   -1.6910   -4.3940 c3        1 386      0.547000
     33 F3         -2.7730   -2.6770   -4.2290 f         1 386     -0.131000
     34 F2         -2.2830   -0.8340   -5.3520 f         1 386     -0.131000
     35 F1         -0.6670   -2.2280   -4.7470 f         1 386     -0.131000
     36 H1         -0.9030    0.0920    0.5850 hn        1 386      0.259000
     37 H2         -2.7080    2.0840   -0.1070 ha        1 386      0.149000
     38 H3          2.0690   -0.5950    3.9190 hn        1 386      0.277000
     39 H4         -5.1650    1.8370   -0.5270 ha        1 386      0.164000
     40 H5          6.3780   -0.9900    3.7340 hn        1 386      0.164000
     41 H6         -4.3140   -1.4820   -2.7800 hc        1 386      0.189000
     42 H7         -4.1770   -0.1450   -3.9930 hc        1 386      0.189000
     43 H8          7.2420   -1.8510    6.4040 h4        1 386      0.173000
     44 H9          6.2230    1.7270    7.1700 ha        1 386      0.166000
     45 H11         4.4970    1.3370    0.4520 h4        1 386      0.208000
     46 F5          7.4040   -2.0260   10.6440 f         1 386     -0.113500
@<TRIPOS>BOND
     1    1   27 1   
     2    1   28 1   
     3    1   36 1   
     4    2    5 1   
     5    2   29 1   
     6    2   37 1   
     7    3   28 1   
     8    4   20 1   
     9    4   21 1   
    10    4   38 1   
    11    5    8 1   
    12    5   39 1   
    13    6   18 1   
    14    6   40 1   
    15    7    8 1   
    16    7   30 1   
    17    7   41 1   
    18    7   42 1   
    19    9   10 1   
    20    9   11 1   
    21    9   14 1   
    22    9   46 1   
    23   11   12 1   
    24   12   13 1   
    25   12   15 1   
    26   14   15 1   
    27   15   16 1   
    28   16   17 1   
    29   16   44 1   
    30   17   18 1   
    31   17   19 1   
    32   18   43 1   
    33   19   20 1   
    34   21   22 1   
    35   21   23 1   
    36   23   24 1   
    37   23   26 1   
    38   24   25 1   
    39   24   45 1   
    40   25   27 1   
    41   26   27 1   
    42   28   29 1   
    43   29   30 1   
    44   30   31 1   
    45   31   32 1   
    46   32   33 1   
    47   32   34 1   
    48   32   35 1   
@<TRIPOS>SUBSTRUCTURE
     1 386         1 TEMP              0 ****  ****    0 ROOT
