@<TRIPOS>MOLECULE
387
   46    47     1     0     0
SMALL
bcc


@<TRIPOS>ATOM
      1 CAI         0.2130    0.9250    1.3580 ca        1 387     -0.105500
      2 CAU         1.2040    0.3880    2.1870 ca        1 387      0.027400
      3 CLC         2.6960    1.1630    2.3150 cl        1 387      0.005100
      4 CAH         0.9660   -0.7930    2.9040 ca        1 387     -0.050000
      5 CAV        -0.2760   -1.4330    2.7890 ca        1 387      0.027400
      6 CLD        -0.5690   -2.8560    3.6440 cl        1 387      0.005100
      7 CAJ        -1.2720   -0.9030    1.9630 ca        1 387     -0.105500
      8 CAW        -1.0220    0.2750    1.2490 ca        1 387     -0.202300
      9 CAO        -2.0480    0.8000    0.3150 c3        1 387      0.196100
     10 NAP        -2.9560    1.7810    1.0500 n4        1 387     -0.778000
     11 CAM        -4.0000    2.3420    0.1550 c3        1 387      0.102800
     12 CAL        -4.9390    3.3410    0.8450 c3        1 387     -0.136400
     13 CAN        -5.9340    3.8470   -0.1980 c3        1 387      0.114800
     14 NAQ        -6.8860    4.8830    0.3560 n4        1 387     -0.646800
     15 CAS        -7.7140    5.4990   -0.7380 c         1 387      0.484100
     16 OAA        -7.4560    5.2860   -1.9090 o         1 387     -0.280100
     17 NAR        -8.8690    6.3670   -0.3400 n4        1 387     -0.488200
     18 CAX        -9.6520    5.8240    0.7750 ca        1 387     -0.097400
     19 CAK        -9.1540    5.9910    2.0860 ca        1 387     -0.256000
     20 CAG       -10.9020    5.2440    0.5260 ca        1 387     -0.090000
     21 CAE       -11.6890    4.8490    1.6220 ca        1 387     -0.046000
     22 CAF       -11.2360    5.0030    2.9210 ca        1 387     -0.112000
     23 CAT        -9.9570    5.5670    3.1550 ca        1 387      0.208100
     24 OAB        -9.4100    5.7190    4.3900 oh        1 387     -0.462100
     25 H1          0.4240    1.8350    0.7740 ha        1 387      0.151500
     26 H2          1.7570   -1.2220    3.5490 ha        1 387      0.204000
     27 H3         -2.2320   -1.4340    1.8550 ha        1 387      0.151500
     28 H4         -1.5760    1.3590   -0.5430 hx        1 387      0.115700
     29 H5         -3.4740    2.8460   -0.7100 hx        1 387      0.123200
     30 H6         -4.6000    1.4760   -0.2560 hx        1 387      0.123200
     31 H7         -5.4780    2.8390    1.6930 hc        1 387      0.097200
     32 H8         -4.3430    4.1960    1.2690 hc        1 387      0.097200
     33 H9         -5.3800    4.3200   -1.0660 hx        1 387      0.141700
     34 H10        -6.5620    2.9940   -0.5950 hx        1 387      0.141700
     35 H11        -7.5130    4.4510    1.0630 hn        1 387      0.499300
     36 H12        -8.5160    7.3110   -0.0830 hn        1 387      0.522800
     37 H13        -8.2260    6.5360    2.3170 ha        1 387      0.163000
     38 H14       -11.3060    5.1090   -0.4930 ha        1 387      0.188000
     39 H15       -12.6930    4.4180    1.4300 ha        1 387      0.215000
     40 H16       -11.8720    4.7040    3.7770 ha        1 387      0.210000
     41 H17       -10.0830    5.5420    5.0770 ho        1 387      0.485000
     42 H18        -2.7030   -0.0260   -0.0850 hx        1 387      0.115700
     43 H19        -3.3870    1.2880    1.8420 hn        1 387      0.458800
     44 HAP2       -2.3690    2.5330    1.4350 hn        1 387      0.458800
     45 HAQ2       -6.3440    5.6280    0.8260 hn        1 387      0.499300
     46 HAR2       -9.4820    6.4680   -1.1810 hn        1 387      0.522800
@<TRIPOS>BOND
     1    1    2 ar  
     2    1    8 ar  
     3    1   25 1   
     4    2    3 1   
     5    2    4 ar  
     6    4    5 ar  
     7    4   26 1   
     8    5    6 1   
     9    5    7 ar  
    10    7    8 ar  
    11    7   27 1   
    12    8    9 1   
    13    9   10 1   
    14    9   28 1   
    15    9   42 1   
    16   10   11 1   
    17   10   43 1   
    18   10   44 1   
    19   11   12 1   
    20   11   29 1   
    21   11   30 1   
    22   12   13 1   
    23   12   31 1   
    24   12   32 1   
    25   13   14 1   
    26   13   33 1   
    27   13   34 1   
    28   14   15 1   
    29   14   35 1   
    30   14   45 1   
    31   15   16 2   
    32   15   17 1   
    33   17   18 1   
    34   17   36 1   
    35   17   46 1   
    36   18   19 ar  
    37   18   20 ar  
    38   19   23 ar  
    39   19   37 1   
    40   20   21 ar  
    41   20   38 1   
    42   21   22 ar  
    43   21   39 1   
    44   22   23 ar  
    45   22   40 1   
    46   23   24 1   
    47   24   41 1   
@<TRIPOS>SUBSTRUCTURE
     1 387         1 TEMP              0 ****  ****    0 ROOT
