@<TRIPOS>MOLECULE
387
   43    44     1     0     0
SMALL
bcc


@<TRIPOS>ATOM
      1 CAI         5.2510   -0.9050    1.3750 ca        1 387     -0.113500
      2 CAU         6.5470   -1.1480    0.9110 ca        1 387      0.021400
      3 CLC         7.5150   -2.3050    1.6940 cl        1 387     -0.084400
      4 CAH         7.0590   -0.4540   -0.1890 ca        1 387     -0.119000
      5 CAV         6.2500    0.4940   -0.8210 ca        1 387      0.021400
      6 CLD         6.8570    1.3460   -2.1600 cl        1 387     -0.084400
      7 CAJ         4.9540    0.7520   -0.3680 ca        1 387     -0.113500
      8 CAW         4.4560    0.0490    0.7330 ca        1 387     -0.077300
      9 CAO         3.0780    0.3380    1.2560 c3        1 387      0.208100
     10 NAP         2.0590    0.3220    0.2230 n3        1 387     -0.825200
     11 CAM         0.7150    0.4030    0.7620 c3        1 387      0.164800
     12 CAL        -0.3600    0.2390   -0.3120 c3        1 387     -0.094400
     13 CAN        -1.7310    0.4050    0.3430 c3        1 387      0.085000
     14 NAQ        -2.8140    0.2490   -0.5990 n         1 387     -0.552900
     15 CAS        -4.1200    0.1390   -0.0780 c         1 387      0.759100
     16 OAA        -4.2900   -0.0750    1.1450 o         1 387     -0.623100
     17 NAR        -5.1940    0.2620   -0.9850 n         1 387     -0.463100
     18 CAX        -6.5240   -0.0840   -0.6830 ca        1 387      0.105600
     19 CAK        -7.0450   -0.0300    0.6240 ca        1 387     -0.230000
     20 CAG        -7.3860   -0.4400   -1.7500 ca        1 387     -0.220000
     21 CAE        -8.7250   -0.7240   -1.5070 ca        1 387     -0.073000
     22 CAF        -9.2510   -0.6780   -0.2200 ca        1 387     -0.182000
     23 CAT        -8.3960   -0.3320    0.8370 ca        1 387      0.148100
     24 OAB        -8.9570   -0.2990    2.0930 oh        1 387     -0.498100
     25 H1          4.8610   -1.4610    2.2410 ha        1 387      0.158500
     26 H2          8.0810   -0.6510   -0.5490 ha        1 387      0.162000
     27 H3          4.3240    1.5040   -0.8710 ha        1 387      0.158500
     28 H4          2.8440   -0.3860    2.0940 h1        1 387      0.043700
     29 H5          0.5320   -0.3660    1.5710 h1        1 387      0.035200
     30 H6          0.6070    1.4190    1.2400 h1        1 387      0.035200
     31 H7         -0.2160    1.0050   -1.1170 hc        1 387      0.054700
     32 H8         -0.2800   -0.7730   -0.7870 hc        1 387      0.054700
     33 H9         -1.8630   -0.3710    1.1520 h1        1 387      0.056200
     34 H10        -1.7810    1.4180    0.8400 h1        1 387      0.056200
     35 H11        -2.6910    0.7140   -1.4700 hn        1 387      0.295500
     36 H12        -4.9760    0.2370   -1.9580 hn        1 387      0.310500
     37 H13        -6.4040    0.2350    1.4800 ha        1 387      0.174000
     38 H14        -7.0070   -0.4910   -2.7820 ha        1 387      0.129000
     39 H15        -9.3800   -0.9950   -2.3500 ha        1 387      0.135000
     40 H16       -10.3060   -0.9060   -0.0200 ha        1 387      0.152000
     41 H17        -8.2580   -0.0800    2.7280 ho        1 387      0.424000
     42 H18         3.0810    1.3750    1.7060 h1        1 387      0.043700
     43 H19         2.1590   -0.4840   -0.3650 hn        1 387      0.363800
@<TRIPOS>BOND
     1    1    2 ar  
     2    1    8 ar  
     3    1   25 1   
     4    2    3 1   
     5    2    4 ar  
     6    4    5 ar  
     7    4   26 1   
     8    5    6 1   
     9    5    7 ar  
    10    7    8 ar  
    11    7   27 1   
    12    8    9 1   
    13    9   10 1   
    14    9   28 1   
    15    9   42 1   
    16   10   11 1   
    17   10   43 1   
    18   11   12 1   
    19   11   29 1   
    20   11   30 1   
    21   12   13 1   
    22   12   31 1   
    23   12   32 1   
    24   13   14 1   
    25   13   33 1   
    26   13   34 1   
    27   14   15 1   
    28   14   35 1   
    29   15   16 2   
    30   15   17 1   
    31   17   18 1   
    32   17   36 1   
    33   18   19 ar  
    34   18   20 ar  
    35   19   23 ar  
    36   19   37 1   
    37   20   21 ar  
    38   20   38 1   
    39   21   22 ar  
    40   21   39 1   
    41   22   23 ar  
    42   22   40 1   
    43   23   24 1   
    44   24   41 1   
@<TRIPOS>SUBSTRUCTURE
     1 387         1 TEMP              0 ****  ****    0 ROOT
