@<TRIPOS>MOLECULE
387
   43    35     1     0     0
SMALL
bcc


@<TRIPOS>ATOM
      1 CAI         5.4590   -2.7140    1.5170 c1        1 387     -0.105000
      2 CAU         6.8450   -2.7650    1.5510 c1        1 387     -0.058000
      3 CLC         7.6930   -2.3500    3.0150 cl        1 387     -0.005000
      4 CAH         7.5590   -3.0030    0.3850 c1        1 387     -0.119000
      5 CAV         6.8870   -3.1890   -0.8140 c1        1 387      0.023000
      6 CLD         7.7810   -3.4450   -2.2780 cl        1 387     -0.007000
      7 CAJ         5.5010   -3.1370   -0.8490 c1        1 387     -0.196000
      8 CAW         4.7860   -2.8990    0.3170 c1        1 387     -0.070000
      9 CAO         3.2430   -2.9530    0.3010 c3        1 387     -0.036000
     10 NAP         2.7160   -1.6130    0.1720 n3        1 387     -0.304000
     11 CAM         1.2650   -1.6560    0.2040 c3        1 387     -0.071000
     12 CAL         0.7030   -0.2100    0.4070 c3        1 387     -0.173000
     13 CAN        -0.8320   -0.2380    0.2930 c3        1 387     -0.033000
     14 NAQ        -1.3340    1.1030    0.2490 n3        1 387     -0.359000
     15 CAS        -2.7260    1.3360    0.0300 c1        1 387      0.381000
     16 OAA        -3.5370    0.4540    0.2670 o         1 387     -0.375000
     17 NAR        -3.1760    2.6300   -0.3840 n2        1 387     -0.315000
     18 CAX        -4.5720    2.8890   -0.5200 c1        1 387      0.110000
     19 CAK        -5.1290    4.0150    0.0740 c1        1 387     -0.196000
     20 CAG        -5.3670    2.0360   -1.2730 c1        1 387     -0.174000
     21 CAE        -6.7170    2.3070   -1.4330 c1        1 387     -0.127500
     22 CAF        -7.2740    3.4320   -0.8400 c1        1 387     -0.127500
     23 CAT        -6.4770    4.2870   -0.0850 c1        1 387      0.023000
     24 OAB        -7.0780    5.3580    0.6480 o         1 387     -0.251000
     25 H1          4.9590   -2.5470    2.3340 ha        1 387      0.166000
     26 H2          8.5300   -3.0400    0.4080 ha        1 387      0.162000
     27 H3          5.0330   -3.2660   -1.6830 ha        1 387      0.140000
     28 H4          2.9220   -3.3520    1.1380 h1        1 387      0.083500
     29 H5          0.9320   -2.0180   -0.6380 h1        1 387      0.074500
     30 H6          0.9720   -2.2250    0.9410 h1        1 387      0.074500
     31 H7          0.9580    0.1180    1.2930 hc        1 387      0.093000
     32 H8          1.0740    0.3890   -0.2860 hc        1 387      0.093000
     33 H9         -1.0910   -0.7120   -0.5280 h1        1 387      0.095500
     34 H10        -1.2060   -0.7000    1.0670 h1        1 387      0.095500
     35 H11        -0.7650    1.8000    0.3110 hn        1 387      0.206000
     36 H12        -2.5770    3.3020   -0.5020 hn        1 387      0.221000
     37 H13        -4.5710    4.6140    0.6030 ha        1 387      0.140000
     38 H14        -4.9730    1.2400   -1.6930 ha        1 387      0.172000
     39 H15        -7.2790    1.7050   -1.9650 ha        1 387      0.145000
     40 H16        -8.2280    3.6230   -0.9530 ha        1 387      0.145000
     41 H17        -6.8480    6.1420    0.2760 ho        1 387      0.216000
     42 H18         2.9430   -3.4950   -0.4550 h1        1 387      0.083500
     43 H19         2.9940   -1.2500   -0.6240 hn        1 387      0.158000
@<TRIPOS>BOND
     1    1    8 1   
     2    1   25 1   
     3    2    3 1   
     4    2    4 1   
     5    4   26 1   
     6    5    7 1   
     7    7   27 1   
     8    8    9 1   
     9    9   10 1   
    10    9   28 1   
    11    9   42 1   
    12   10   11 1   
    13   10   43 1   
    14   11   12 1   
    15   11   29 1   
    16   11   30 1   
    17   12   13 1   
    18   12   31 1   
    19   12   32 1   
    20   13   14 1   
    21   13   33 1   
    22   13   34 1   
    23   14   15 1   
    24   14   35 1   
    25   15   16 1   
    26   17   18 1   
    27   17   36 1   
    28   18   20 1   
    29   19   23 1   
    30   19   37 1   
    31   20   38 1   
    32   21   22 1   
    33   21   39 1   
    34   22   40 1   
    35   24   41 1   
@<TRIPOS>SUBSTRUCTURE
     1 387         1 TEMP              0 ****  ****    0 ROOT
