@<TRIPOS>MOLECULE
387
   45    46     1     0     0
SMALL
bcc


@<TRIPOS>ATOM
      1 CAI        -0.0290   -0.3320    0.0250 ca        1 387     -0.106000
      2 CAU         1.3500   -0.5620   -0.0110 ca        1 387      0.027400
      3 CLC         2.1110   -0.8370   -1.4920 cl        1 387     -0.008400
      4 CAH         2.1010   -0.5710    1.1710 ca        1 387     -0.062000
      5 CAV         1.4600   -0.3450    2.3970 ca        1 387      0.027400
      6 CLD         2.3540   -0.3570    3.8280 cl        1 387     -0.008400
      7 CAJ         0.0810   -0.1140    2.4440 ca        1 387     -0.106000
      8 CAW        -0.6570   -0.1070    1.2560 ca        1 387     -0.189300
      9 CAO        -2.1310    0.0820    1.3060 c3        1 387      0.185100
     10 NAP        -2.4710    1.5540    1.1940 n4        1 387     -0.772000
     11 CAM        -3.9400    1.7870    1.2390 c3        1 387      0.102800
     12 CAL        -4.3240    3.2630    1.1300 c3        1 387     -0.134400
     13 CAN        -5.8470    3.3530    1.1870 c3        1 387      0.110800
     14 NAQ        -6.3650    4.7440    1.0870 n4        1 387     -0.690800
     15 CAS        -7.9500    4.7470    1.1420 c         1 387      0.650100
     16 OAA        -8.4230    3.6120    1.1210 o         1 387     -0.467100
     17 NAR        -8.5280    5.9680    1.2810 n         1 387     -0.387100
     18 CAX        -9.9470    6.1450    1.1980 ca        1 387      0.015600
     19 CAK       -10.8300    5.1550    1.6510 ca        1 387     -0.160000
     20 CAG       -10.4280    7.3700    0.6910 ca        1 387     -0.173000
     21 CAE       -11.8030    7.5990    0.6600 ca        1 387     -0.053000
     22 CAF       -12.7020    6.6360    1.1080 ca        1 387     -0.178000
     23 CAT       -12.2120    5.4170    1.6000 ca        1 387      0.167100
     24 OAB       -13.0170    4.4100    2.0590 oh        1 387     -0.476100
     25 H1         -0.6140   -0.3550   -0.9080 ha        1 387      0.153500
     26 H2          3.1890   -0.7620    1.1390 ha        1 387      0.197000
     27 H3         -0.4160    0.0340    3.4160 ha        1 387      0.153500
     28 H4         -2.6400   -0.4500    0.4510 hx        1 387      0.115700
     29 H5         -4.4080    1.2060    0.3900 hx        1 387      0.120200
     30 H6         -4.3270    1.3610    2.2120 hx        1 387      0.120200
     31 H7         -3.9420    3.6930    0.1650 hc        1 387      0.084700
     32 H8         -3.8650    3.8470    1.9740 hc        1 387      0.084700
     33 H9         -6.2300    2.9170    2.1580 hx        1 387      0.131200
     34 H10        -6.3060    2.7550    0.3430 hx        1 387      0.131200
     35 H11        -5.9890    5.3080    1.8530 hn        1 387      0.451800
     36 H12        -7.9890    6.8080    1.2190 hn        1 387      0.352500
     37 H13       -10.4910    4.1820    2.0390 ha        1 387      0.174000
     38 H14        -9.7460    8.1540    0.3290 ha        1 387      0.147000
     39 H15       -12.1800    8.5600    0.2710 ha        1 387      0.170000
     40 H16       -13.7870    6.8270    1.0750 ha        1 387      0.170000
     41 H17       -13.9430    4.6960    1.9910 ho        1 387      0.448000
     42 H18        -2.5580   -0.2910    2.2810 hx        1 387      0.115700
     43 H19        -2.0830    1.9130    0.3120 hn        1 387      0.455800
     44 HAP2       -2.0100    2.0550    1.9630 hn        1 387      0.455800
     45 HAQ2       -6.0720    5.1590    0.1990 hn        1 387      0.451800
@<TRIPOS>BOND
     1    1    2 ar  
     2    1    8 ar  
     3    1   25 1   
     4    2    3 1   
     5    2    4 ar  
     6    4    5 ar  
     7    4   26 1   
     8    5    6 1   
     9    5    7 ar  
    10    7    8 ar  
    11    7   27 1   
    12    8    9 1   
    13    9   10 1   
    14    9   28 1   
    15    9   42 1   
    16   10   11 1   
    17   10   43 1   
    18   10   44 1   
    19   11   12 1   
    20   11   29 1   
    21   11   30 1   
    22   12   13 1   
    23   12   31 1   
    24   12   32 1   
    25   13   14 1   
    26   13   33 1   
    27   13   34 1   
    28   14   15 1   
    29   14   35 1   
    30   14   45 1   
    31   15   16 2   
    32   15   17 1   
    33   17   18 1   
    34   17   36 1   
    35   18   19 ar  
    36   18   20 ar  
    37   19   23 ar  
    38   19   37 1   
    39   20   21 ar  
    40   20   38 1   
    41   21   22 ar  
    42   21   39 1   
    43   22   23 ar  
    44   22   40 1   
    45   23   24 1   
    46   24   41 1   
@<TRIPOS>SUBSTRUCTURE
     1 387         1 TEMP              0 ****  ****    0 ROOT
