@<TRIPOS>MOLECULE
387
   45    46     1     0     0
SMALL
bcc


@<TRIPOS>ATOM
      1 CAI        -0.0260   -0.3240    0.0260 ca        1 387     -0.106000
      2 CAU         1.3540   -0.5530   -0.0100 ca        1 387      0.027400
      3 ClC         2.1170   -0.8210   -1.4910 cl        1 387     -0.008400
      4 CAH         2.1030   -0.5650    1.1730 ca        1 387     -0.062000
      5 CAV         1.4610   -0.3450    2.3990 ca        1 387      0.027400
      6 ClD         2.3540   -0.3620    3.8300 cl        1 387     -0.008400
      7 CAJ         0.0820   -0.1150    2.4460 ca        1 387     -0.106000
      8 CAW        -0.6550   -0.1050    1.2560 ca        1 387     -0.189300
      9 CAO        -2.1290    0.0840    1.3060 c3        1 387      0.185100
     10 NAP        -2.4710    1.5550    1.1920 ny        1 387     -0.772000
     11 CAM        -3.9390    1.7870    1.2380 c3        1 387      0.102800
     12 CAL        -4.3240    3.2630    1.1250 c3        1 387     -0.134400
     13 CAN        -5.8480    3.3520    1.1880 c3        1 387      0.110800
     14 NAQ        -6.3670    4.7420    1.0820 ny        1 387     -0.690800
     15 CAS        -7.9510    4.7450    1.1490 c         1 387      0.650100
     16 OAA        -8.4230    3.6090    1.1570 o         1 387     -0.467100
     17 NAR        -8.5290    5.9690    1.2640 ns        1 387     -0.387100
     18 CAX        -9.9490    6.1430    1.1890 ca        1 387      0.015600
     19 CAK       -10.8270    5.1630    1.6730 ca        1 387     -0.160000
     20 CAG       -10.4360    7.3550    0.6560 ca        1 387     -0.173000
     21 CAE       -11.8110    7.5810    0.6310 ca        1 387     -0.053000
     22 CAF       -12.7050    6.6290    1.1110 ca        1 387     -0.178000
     23 CAT       -12.2090    5.4230    1.6280 ca        1 387      0.167100
     24 OAB       -13.0090    4.4270    2.1180 oh        1 387     -0.476100
     25 H1         -0.6090   -0.3440   -0.9080 ha        1 387      0.153000
     26 H2          3.1920   -0.7560    1.1410 ha        1 387      0.197000
     27 H3         -0.4160    0.0290    3.4180 ha        1 387      0.153000
     28 H4         -2.6380   -0.4500    0.4510 hx        1 387      0.115700
     29 H5         -4.3250    1.3640    2.2130 hx        1 387      0.120200
     30 H6         -4.4080    1.2020    0.3920 hx        1 387      0.120200
     31 H7         -3.9470    3.6890    0.1560 hc        1 387      0.084700
     32 H8         -3.8630    3.8500    1.9640 hc        1 387      0.084700
     33 H9         -6.3100    2.7490    0.3480 hx        1 387      0.131200
     34 H10        -6.2270    2.9210    2.1620 hx        1 387      0.131200
     35 H11        -5.9870    5.3100    1.8430 hn        1 387      0.451300
     36 H12        -7.9910    6.8080    1.1780 hn        1 387      0.352500
     37 H13       -10.4830    4.2010    2.0820 ha        1 387      0.174000
     38 H14        -9.7570    8.1300    0.2690 ha        1 387      0.147000
     39 H15       -12.1920    8.5330    0.2220 ha        1 387      0.170000
     40 H16       -13.7900    6.8190    1.0830 ha        1 387      0.170000
     41 H17       -13.9360    4.7100    2.0520 ho        1 387      0.448000
     42 H18        -2.5560   -0.2890    2.2820 hx        1 387      0.115700
     43 H19        -2.0090    2.0580    1.9600 hn        1 387      0.455800
     44 HAP2       -2.0830    1.9130    0.3100 hn        1 387      0.455800
     45 HAQ2       -6.0780    5.1520    0.1900 hn        1 387      0.451300
@<TRIPOS>BOND
     1    1    2 ar  
     2    1    8 ar  
     3    1   25 1   
     4    2    3 1   
     5    2    4 ar  
     6    4    5 ar  
     7    4   26 1   
     8    5    6 1   
     9    5    7 ar  
    10    7    8 ar  
    11    7   27 1   
    12    8    9 1   
    13    9   10 1   
    14    9   28 1   
    15    9   42 1   
    16   10   11 1   
    17   10   43 1   
    18   10   44 1   
    19   11   12 1   
    20   11   29 1   
    21   11   30 1   
    22   12   13 1   
    23   12   31 1   
    24   12   32 1   
    25   13   14 1   
    26   13   33 1   
    27   13   34 1   
    28   14   15 1   
    29   14   35 1   
    30   14   45 1   
    31   15   16 2   
    32   15   17 1   
    33   17   18 1   
    34   17   36 1   
    35   18   19 ar  
    36   18   20 ar  
    37   19   23 ar  
    38   19   37 1   
    39   20   21 ar  
    40   20   38 1   
    41   21   22 ar  
    42   21   39 1   
    43   22   23 ar  
    44   22   40 1   
    45   23   24 1   
    46   24   41 1   
@<TRIPOS>SUBSTRUCTURE
     1 387         1 TEMP              0 ****  ****    0 ROOT
