@<TRIPOS>MOLECULE
388
   36    37     1     0     0
SMALL
bcc


@<TRIPOS>ATOM
      1 C1         -0.1190    0.0190    0.7460 c3        1 388      0.127300
      2 N10         1.2860   -0.1040    0.4720 n         1 388     -0.541900
      3 C11         2.2390    0.0170    1.4720 c         1 388      0.677700
      4 O12         1.9310    0.0000    2.6800 o         1 388     -0.594100
      5 C2         -0.7240    1.3590    0.4250 ca        1 388     -0.131300
      6 C7         -0.5990    1.9420   -0.8540 ca        1 388      0.120900
      7 F9          0.1250    1.3270   -1.8240 f         1 388     -0.150900
      8 C6         -1.2200    3.1690   -1.1490 ca        1 388     -0.141000
      9 C5         -1.9600    3.8190   -0.1610 ca        1 388     -0.003900
     10 BR8        -2.7880    5.4520   -0.5460 br        1 388     -0.068100
     11 C4         -2.0810    3.2530    1.1110 ca        1 388     -0.114000
     12 C3         -1.4660    2.0360    1.3950 ca        1 388     -0.092000
     13 C8          3.6660    0.0490    1.0350 ca        1 388     -0.155600
     14 C9          4.5680   -0.8160    1.6630 ca        1 388     -0.048000
     15 C10         5.9100   -0.8430    1.2900 ca        1 388     -0.152000
     16 C12         6.3610    0.0040    0.2720 ca        1 388      0.064400
     17 CL1         7.9890   -0.0360   -0.1990 cl        1 388     -0.067400
     18 C14         5.4850    0.8880   -0.3650 ca        1 388     -0.193000
     19 C15         4.1420    0.9120    0.0310 ca        1 388      0.139100
     20 O20         3.2040    1.7490   -0.5570 os        1 388     -0.347900
     21 C21         3.6930    2.9600   -1.1290 c3        1 388      0.030400
     22 C22         3.8400    2.7990   -2.6230 c         1 388      0.599100
     23 O24         4.6750    3.3640   -3.3270 o         1 388     -0.480000
     24 O23         2.9740    1.9920   -3.2930 oh        1 388     -0.566100
     25 H11        -0.6530   -0.7540    0.1160 h1        1 388      0.079700
     26 H12        -0.2970   -0.2240    1.8340 h1        1 388      0.079700
     27 HN10        1.5700    0.1020   -0.4610 hn        1 388      0.315500
     28 H6         -1.1130    3.5950   -2.1590 ha        1 388      0.165000
     29 H4         -2.6610    3.7640    1.8970 ha        1 388      0.156000
     30 H3         -1.5620    1.6020    2.4040 ha        1 388      0.154000
     31 H9          4.2020   -1.4740    2.4690 ha        1 388      0.165000
     32 H10         6.6080   -1.5290    1.7950 ha        1 388      0.159000
     33 H14         5.8460    1.5430   -1.1730 ha        1 388      0.167000
     34 H211        4.6550    3.3000   -0.6680 h1        1 388      0.101700
     35 H212        2.8810    3.7120   -0.9170 h1        1 388      0.101700
     36 H102        2.3510    1.5830   -2.6700 ho        1 388      0.443000
@<TRIPOS>BOND
     1    1    2 1   
     2    1    5 1   
     3    1   25 1   
     4    1   26 1   
     5    2    3 1   
     6    2   27 1   
     7    3    4 2   
     8    3   13 1   
     9    5    6 ar  
    10    5   12 ar  
    11    6    7 1   
    12    6    8 ar  
    13    8    9 ar  
    14    8   28 1   
    15    9   10 1   
    16    9   11 ar  
    17   11   12 ar  
    18   11   29 1   
    19   12   30 1   
    20   13   14 ar  
    21   13   19 ar  
    22   14   15 ar  
    23   14   31 1   
    24   15   16 ar  
    25   15   32 1   
    26   16   17 1   
    27   16   18 ar  
    28   18   19 ar  
    29   18   33 1   
    30   19   20 1   
    31   20   21 1   
    32   21   22 1   
    33   21   34 1   
    34   21   35 1   
    35   22   23 2   
    36   22   24 1   
    37   24   36 1   
@<TRIPOS>SUBSTRUCTURE
     1 388         1 TEMP              0 ****  ****    0 ROOT
