@<TRIPOS>MOLECULE
388
   35    36     1     0     0
SMALL
bcc


@<TRIPOS>ATOM
      1 C1          3.7250   -2.6170   -3.3280 c3        1 388      0.138300
      2 N10         3.4190   -2.0940   -2.0260 n         1 388     -0.544900
      3 C11         2.1360   -2.0530   -1.5470 c         1 388      0.680700
      4 O12         1.1550   -2.4040   -2.2500 o         1 388     -0.665100
      5 C2          4.4440   -1.6400   -4.2220 ca        1 388     -0.109300
      6 C7          3.9590   -1.3470   -5.5140 ca        1 388      0.121900
      7 F9          2.8190   -1.9170   -5.9770 f         1 388     -0.143900
      8 C6          4.6540   -0.4580   -6.3560 ca        1 388     -0.164000
      9 C5          5.8300    0.1360   -5.9010 ca        1 388     -0.007900
     10 BR8         6.7560    1.3240   -7.0230 br        1 388     -0.120100
     11 C4          6.3180   -0.1500   -4.6250 ca        1 388     -0.124000
     12 C3          5.6280   -1.0340   -3.7960 ca        1 388     -0.087000
     13 C8          1.8980   -1.5130   -0.1730 ca        1 388     -0.165600
     14 C9          0.6890   -0.8380    0.0350 ca        1 388     -0.052000
     15 C10         0.3700   -0.2850    1.2720 ca        1 388     -0.190000
     16 C12         1.2730   -0.4230    2.3300 ca        1 388      0.064400
     17 CL1         0.8900    0.2480    3.8520 cl        1 388     -0.123400
     18 C14         2.4740   -1.1070    2.1680 ca        1 388     -0.213000
     19 C15         2.7910   -1.6570    0.9110 ca        1 388      0.189100
     20 O20         3.9170   -2.4110    0.7160 os        1 388     -0.315900
     21 C21         5.0920   -2.0160    1.4440 c3        1 388     -0.007600
     22 C22         6.2960   -2.0870    0.4750 c         1 388      0.926600
     23 O24         6.1000   -1.8430   -0.7500 o         1 388     -0.829800
     24 O23         7.4120   -2.3460    0.9920 o         1 388     -0.829800
     25 H11         2.7720   -2.9560   -3.8310 h1        1 388      0.069200
     26 H12         4.4030   -3.5140   -3.2060 h1        1 388      0.069200
     27 HN10        4.2010   -1.9140   -1.4110 hn        1 388      0.385500
     28 H6          4.2530   -0.2460   -7.3570 ha        1 388      0.147000
     29 H4          7.2470    0.3140   -4.2600 ha        1 388      0.151000
     30 H3          6.0270   -1.2600   -2.7830 ha        1 388      0.222000
     31 H9         -0.0170   -0.7520   -0.8080 ha        1 388      0.156000
     32 H10        -0.5790    0.2510    1.4110 ha        1 388      0.138000
     33 H14         3.1740   -1.2280    3.0070 ha        1 388      0.156000
     34 H211        5.0090   -0.9720    1.8330 h1        1 388      0.039700
     35 H212        5.2080   -2.7380    2.2910 h1        1 388      0.039700
@<TRIPOS>BOND
     1    1    2 1   
     2    1    5 1   
     3    1   25 1   
     4    1   26 1   
     5    2    3 1   
     6    2   27 1   
     7    3    4 2   
     8    3   13 1   
     9    5    6 ar  
    10    5   12 ar  
    11    6    7 1   
    12    6    8 ar  
    13    8    9 ar  
    14    8   28 1   
    15    9   10 1   
    16    9   11 ar  
    17   11   12 ar  
    18   11   29 1   
    19   12   30 1   
    20   13   14 ar  
    21   13   19 ar  
    22   14   15 ar  
    23   14   31 1   
    24   15   16 ar  
    25   15   32 1   
    26   16   17 1   
    27   16   18 ar  
    28   18   19 ar  
    29   18   33 1   
    30   19   20 1   
    31   20   21 1   
    32   21   22 1   
    33   21   34 1   
    34   21   35 1   
    35   22   23 1   
    36   22   24 1   
@<TRIPOS>SUBSTRUCTURE
     1 388         1 TEMP              0 ****  ****    0 ROOT
