@<TRIPOS>MOLECULE
388
   35    32     1     0     0
SMALL
bcc


@<TRIPOS>ATOM
      1 C1         -2.5020    0.2430   -0.5950 c3        1 388     -0.001000
      2 N10        -1.5900    1.2930   -0.1860 n         1 388     -0.340000
      3 C11        -0.9800    1.2440    1.1060 c2        1 388      0.352000
      4 O12        -1.6760    1.2330    2.1050 o         1 388     -0.387000
      5 C2         -2.0680   -0.3080   -1.9750 c2        1 388     -0.129000
      6 C7         -2.5880    0.2400   -3.1360 c2        1 388      0.065000
      7 F9         -3.4080    1.2930   -3.0670 f         1 388     -0.121000
      8 C6         -2.1630   -0.2350   -4.3840 c1        1 388     -0.156000
      9 C5         -1.2250   -1.2500   -4.4560 c1        1 388     -0.158000
     10 BR8        -0.6500   -1.9020   -6.1590 br        1 388      0.027000
     11 C4         -0.7060   -1.7980   -3.2930 c1        1 388     -0.086000
     12 C3         -1.1270   -1.3260   -2.0480 c1        1 388     -0.093000
     13 C8          0.5120    1.3620    1.2340 c2        1 388     -0.186000
     14 C9          1.1850    2.3630    0.5540 c2        1 388     -0.048000
     15 C10         2.5590    2.4290    0.6080 c1        1 388     -0.200000
     16 C12         3.2730    1.4910    1.3450 c1        1 388     -0.003000
     17 CL1         5.0110    1.5110    1.3240 cl        1 388     -0.033000
     18 C14         2.6000    0.4890    2.0250 c1        1 388     -0.199000
     19 C15         1.2220    0.4230    1.9710 c1        1 388      0.164000
     20 O20         0.5370   -0.4990    2.7680 os        1 388     -0.233000
     21 C21         1.2300   -1.7040    2.9670 c3        1 388     -0.107000
     22 C22         1.1640   -2.0920    4.4480 c2        1 388      0.318000
     23 O24         1.2370   -1.1940    5.3430 o         1 388     -0.554000
     24 O23         1.0840   -3.3010    4.7770 o         1 388     -0.554000
     25 H11        -2.4840   -0.4780    0.0640 h1        1 388      0.110500
     26 H12        -3.4190    0.6080   -0.6600 h1        1 388      0.110500
     27 HN10       -1.4420    2.0080   -0.7330 hn        1 388      0.230000
     28 H6         -2.5200    0.1580   -5.2030 ha        1 388      0.145000
     29 H4         -0.0390   -2.5200   -3.3450 ha        1 388      0.206000
     30 H3         -0.8290   -1.7690   -1.2360 ha        1 388      0.198000
     31 H9          0.6860    3.0190    0.0380 ha        1 388      0.149000
     32 H10         3.0300    3.1320    0.1310 ha        1 388      0.136000
     33 H14         3.0960   -0.1640    2.5380 ha        1 388      0.209000
     34 H211        2.1670   -1.5910    2.6990 h1        1 388      0.083500
     35 H212        0.8220   -2.4080    2.4280 h1        1 388      0.083500
@<TRIPOS>BOND
     1    1    2 1   
     2    1    5 1   
     3    1   25 1   
     4    1   26 1   
     5    2    3 1   
     6    2   27 1   
     7    3    4 1   
     8    3   13 1   
     9    5    6 1   
    10    5   12 1   
    11    6    7 1   
    12    6    8 1   
    13    8   28 1   
    14    9   10 1   
    15    9   11 1   
    16   11   29 1   
    17   12   30 1   
    18   13   14 1   
    19   13   19 1   
    20   14   15 1   
    21   14   31 1   
    22   15   32 1   
    23   16   17 1   
    24   16   18 1   
    25   18   33 1   
    26   19   20 1   
    27   20   21 1   
    28   21   22 1   
    29   21   34 1   
    30   21   35 1   
    31   22   23 1   
    32   22   24 1   
@<TRIPOS>SUBSTRUCTURE
     1 388         1 TEMP              0 ****  ****    0 ROOT
