@<TRIPOS>MOLECULE
388
   36    37     1     0     0
SMALL
bcc


@<TRIPOS>ATOM
      1 C1         -0.1260    0.0120    0.7130 c3        1 388      0.127300
      2 N10         1.2800   -0.1100    0.4430 n         1 388     -0.541900
      3 C11         2.2290   -0.0090    1.4480 c         1 388      0.677700
      4 O12         1.9170   -0.0460    2.6550 o         1 388     -0.594100
      5 C2         -0.7260    1.3590    0.4140 ca        1 388     -0.131300
      6 C7         -0.5940    1.9640   -0.8540 ca        1 388      0.120900
      7 F9          0.1320    1.3640   -1.8330 f         1 388     -0.150900
      8 C6         -1.2110    3.1980   -1.1300 ca        1 388     -0.141000
      9 C5         -1.9530    3.8320   -0.1340 ca        1 388     -0.003900
     10 BR8        -2.7750    5.4740   -0.4940 br        1 388     -0.068100
     11 C4         -2.0810    3.2450    1.1280 ca        1 388     -0.114000
     12 C3         -1.4690    2.0210    1.3930 ca        1 388     -0.092000
     13 C8          3.6580    0.0260    1.0180 ca        1 388     -0.155600
     14 C9          4.5550   -0.8520    1.6340 ca        1 388     -0.048000
     15 C10         5.8980   -0.8770    1.2660 ca        1 388     -0.152000
     16 C12         6.3550   -0.0140    0.2650 ca        1 388      0.064400
     17 CL1         7.9860   -0.0500   -0.2010 cl        1 388     -0.067400
     18 C14         5.4850    0.8830   -0.3600 ca        1 388     -0.193000
     19 C15         4.1410    0.9050    0.0300 ca        1 388      0.139100
     20 O20         3.2070    1.7540   -0.5470 os        1 388     -0.347900
     21 C21         3.7020    2.9740   -1.0960 c3        1 388      0.030400
     22 C22         3.8540    2.8380   -2.5920 c         1 388      0.599100
     23 O24         4.6930    3.4120   -3.2840 o         1 388     -0.480000
     24 O23         2.9890    2.0450   -3.2790 oh        1 388     -0.566100
     25 H11        -0.6600   -0.7480    0.0680 h1        1 388      0.079700
     26 H12        -0.3080   -0.2490    1.7970 h1        1 388      0.079700
     27 HN10        1.5680    0.1110   -0.4850 hn        1 388      0.315500
     28 H6         -1.0990    3.6410   -2.1320 ha        1 388      0.165000
     29 H4         -2.6620    3.7440    1.9190 ha        1 388      0.156000
     30 H3         -1.5710    1.5700    2.3930 ha        1 388      0.154000
     31 H9          4.1840   -1.5220    2.4280 ha        1 388      0.165000
     32 H10         6.5930   -1.5730    1.7620 ha        1 388      0.159000
     33 H14         5.8510    1.5520   -1.1560 ha        1 388      0.167000
     34 H211        4.6630    3.3030   -0.6250 h1        1 388      0.101700
     35 H212        2.8920    3.7240   -0.8750 h1        1 388      0.101700
     36 H102        2.3620    1.6270   -2.6660 ho        1 388      0.443000
@<TRIPOS>BOND
     1    1    2 1   
     2    1    5 1   
     3    1   25 1   
     4    1   26 1   
     5    2    3 1   
     6    2   27 1   
     7    3    4 2   
     8    3   13 1   
     9    5    6 ar  
    10    5   12 ar  
    11    6    7 1   
    12    6    8 ar  
    13    8    9 ar  
    14    8   28 1   
    15    9   10 1   
    16    9   11 ar  
    17   11   12 ar  
    18   11   29 1   
    19   12   30 1   
    20   13   14 ar  
    21   13   19 ar  
    22   14   15 ar  
    23   14   31 1   
    24   15   16 ar  
    25   15   32 1   
    26   16   17 1   
    27   16   18 ar  
    28   18   19 ar  
    29   18   33 1   
    30   19   20 1   
    31   20   21 1   
    32   21   22 1   
    33   21   34 1   
    34   21   35 1   
    35   22   23 2   
    36   22   24 1   
    37   24   36 1   
@<TRIPOS>SUBSTRUCTURE
     1 388         1 TEMP              0 ****  ****    0 ROOT
