@<TRIPOS>MOLECULE
389
   70    72     1     0     0
SMALL
bcc


@<TRIPOS>ATOM
      1 N1         20.7100   49.1560   -6.4170 n3        1 389     -0.883800
      2 C2         21.8340   48.7450   -5.6060 c3        1 389      0.111500
      3 C3         22.0300   49.6340   -4.3800 c3        1 389     -0.098100
      4 C4         21.7380   47.2760   -5.1200 c         1 389      0.610100
      5 O5         20.6650   46.6400   -5.1850 o         1 389     -0.629100
      6 N6         22.8980   46.6810   -4.6630 n         1 389     -0.545900
      7 C7         22.8980   45.3580   -4.0970 c3        1 389      0.043700
      8 C8         24.1890   44.5530   -4.3790 c3        1 389     -0.063700
      9 C9         24.1660   44.0210   -5.7970 c3        1 389     -0.099100
     10 C10        25.4550   45.3420   -4.1300 c3        1 389     -0.099100
     11 C11        22.7070   45.4230   -2.5580 c         1 389      0.636100
     12 O12        23.5030   46.0830   -1.8530 o         1 389     -0.635100
     13 N13        21.6880   44.6970   -1.9750 n         1 389     -0.446800
     14 C14        21.4240   44.7840   -0.5410 c3        1 389      0.027700
     15 C15        19.9180   44.5180   -0.3360 c3        1 389     -0.087400
     16 C16        19.3600   44.1050   -1.6920 c3        1 389     -0.088400
     17 C17        20.5080   44.2530   -2.7020 c3        1 389      0.074000
     18 C18        22.2800   43.7820    0.2710 c         1 389      0.650100
     19 O19        21.7560   42.8640    0.9320 o         1 389     -0.615100
     20 C20        24.5430   43.1630    1.0070 c3        1 389      0.094000
     21 N21        23.6470   43.9510    0.2110 n         1 389     -0.553900
     22 C22        24.8960   43.7590    2.3880 c3        1 389     -0.006100
     23 C23        25.8770   42.8470    3.0620 ca        1 389     -0.073800
     24 C24        27.2290   42.8390    2.6990 ca        1 389     -0.124750
     25 C25        28.1220   41.9730    3.3280 ca        1 389     -0.127750
     26 C26        27.6730   41.1060    4.3230 ca        1 389     -0.130500
     27 C27        26.3270   41.1070    4.6880 ca        1 389     -0.127750
     28 C28        25.4320   41.9730    4.0610 ca        1 389     -0.124750
     29 C29        25.3980   45.1680    2.3160 ca        1 389     -0.073800
     30 C30        26.1700   45.6330    1.2450 ca        1 389     -0.124750
     31 C31        26.6150   46.9540    1.2160 ca        1 389     -0.127750
     32 C32        26.2980   47.8250    2.2560 ca        1 389     -0.130500
     33 C33        25.5310   47.3700    3.3290 ca        1 389     -0.127750
     34 C34        25.0830   46.0510    3.3580 ca        1 389     -0.124750
     35 HN1        20.5550   48.4940   -7.1540 hn        1 389      0.361800
     36 HN1A       19.8770   49.2160   -5.8620 hn        1 389      0.361800
     37 H2         22.7500   48.8290   -6.2660 h1        1 389      0.076700
     38 H3         22.9920   49.3800   -3.8750 hc        1 389      0.051033
     39 H3A        22.0640   50.7090   -4.6850 hc        1 389      0.051033
     40 H3B        21.1950   49.4980   -3.6510 hc        1 389      0.051033
     41 HN6        23.6840   47.2520   -4.4510 hn        1 389      0.322500
     42 H7         22.0400   44.7900   -4.5730 h1        1 389      0.098700
     43 H8         24.1690   43.6780   -3.6680 hc        1 389      0.064700
     44 H9         24.1280   44.8580   -6.5340 hc        1 389      0.043033
     45 H9A        25.0890   43.4210   -5.9900 hc        1 389      0.043033
     46 H9B        23.2770   43.3650   -5.9580 hc        1 389      0.043033
     47 H10        25.6330   46.0870   -4.9420 hc        1 389      0.043033
     48 H10A       25.3960   45.8800   -3.1510 hc        1 389      0.043033
     49 H10B       26.3300   44.6480   -4.1030 hc        1 389      0.043033
     50 H14        21.6910   45.8190   -0.1700 h1        1 389      0.081700
     51 H15        19.7560   43.7150    0.4280 hc        1 389      0.073200
     52 H15A       19.4250   45.4520    0.0310 hc        1 389      0.073200
     53 H16        19.0030   43.0460   -1.6680 hc        1 389      0.057700
     54 H16A       18.4990   44.7520   -1.9880 hc        1 389      0.057700
     55 H17        20.2320   44.9940   -3.5060 h1        1 389      0.063700
     56 H17A       20.7350   43.2640   -3.1900 h1        1 389      0.063700
     57 H20        24.0760   42.1510    1.1840 h1        1 389      0.065200
     58 H20A       25.4940   43.0170    0.4190 h1        1 389      0.065200
     59 HN21       24.0070   44.7990   -0.1720 hn        1 389      0.335500
     60 H22        23.9430   43.7670    2.9970 hc        1 389      0.071700
     61 H24        27.5850   43.5290    1.9190 ha        1 389      0.133750
     62 H25        29.1830   41.9770    3.0380 ha        1 389      0.130750
     63 H26        28.3780   40.4230    4.8190 ha        1 389      0.130000
     64 H27        25.9690   40.4240    5.4720 ha        1 389      0.130750
     65 H28        24.3700   41.9660    4.3520 ha        1 389      0.133750
     66 H30        26.4300   44.9580    0.4150 ha        1 389      0.133750
     67 H31        27.2170   47.3080    0.3650 ha        1 389      0.130750
     68 H32        26.6500   48.8660    2.2320 ha        1 389      0.130000
     69 H33        25.2780   48.0530    4.1530 ha        1 389      0.130750
     70 H34        24.4780   45.6990    4.2080 ha        1 389      0.133750
@<TRIPOS>BOND
     1    1    2 1   
     2    1   35 1   
     3    1   36 1   
     4    2    3 1   
     5    2    4 1   
     6    2   37 1   
     7    3   38 1   
     8    3   39 1   
     9    3   40 1   
    10    4    5 2   
    11    4    6 1   
    12    6    7 1   
    13    6   41 1   
    14    7    8 1   
    15    7   11 1   
    16    7   42 1   
    17    8    9 1   
    18    8   10 1   
    19    8   43 1   
    20    9   44 1   
    21    9   45 1   
    22    9   46 1   
    23   10   47 1   
    24   10   48 1   
    25   10   49 1   
    26   11   12 2   
    27   11   13 1   
    28   13   14 1   
    29   13   17 1   
    30   14   15 1   
    31   14   18 1   
    32   14   50 1   
    33   15   16 1   
    34   15   51 1   
    35   15   52 1   
    36   16   17 1   
    37   16   53 1   
    38   16   54 1   
    39   17   55 1   
    40   17   56 1   
    41   18   19 2   
    42   18   21 1   
    43   20   21 1   
    44   20   22 1   
    45   20   57 1   
    46   20   58 1   
    47   21   59 1   
    48   22   23 1   
    49   22   29 1   
    50   22   60 1   
    51   23   24 ar  
    52   23   28 ar  
    53   24   25 ar  
    54   24   61 1   
    55   25   26 ar  
    56   25   62 1   
    57   26   27 ar  
    58   26   63 1   
    59   27   28 ar  
    60   27   64 1   
    61   28   65 1   
    62   29   30 ar  
    63   29   34 ar  
    64   30   31 ar  
    65   30   66 1   
    66   31   32 ar  
    67   31   67 1   
    68   32   33 ar  
    69   32   68 1   
    70   33   34 ar  
    71   33   69 1   
    72   34   70 1   
@<TRIPOS>SUBSTRUCTURE
     1 389         1 TEMP              0 ****  ****    0 ROOT
