@<TRIPOS>MOLECULE
389
   70    68     1     0     0
SMALL
bcc


@<TRIPOS>ATOM
      1 N1         -7.5650    2.9530    1.7120 n3        1 389     -0.343000
      2 C2         -6.3280    2.9060    2.4070 c3        1 389     -0.048000
      3 C3         -6.5410    2.2980    3.7720 c3        1 389     -0.242000
      4 C4         -5.3360    2.0590    1.6230 c2        1 389      0.305000
      5 O5         -5.5750    0.8900    1.4060 o         1 389     -0.388000
      6 N6         -4.1290    2.6530    1.1110 n         1 389     -0.356000
      7 C7         -3.3880    1.9930    0.0920 c3        1 389      0.023000
      8 C8         -3.3410    2.8630   -1.1400 c3        1 389     -0.105000
      9 C9         -4.4890    2.4960   -2.0620 c3        1 389     -0.218000
     10 C10        -3.4630    4.3180   -0.7370 c3        1 389     -0.218000
     11 C11        -1.9680    1.7310    0.5840 c2        1 389      0.284000
     12 O12        -1.2630    2.6600    0.9300 o         1 389     -0.395000
     13 N13        -1.4650    0.3760    0.6540 n         1 389     -0.308000
     14 C14        -0.0220   -0.0830    1.1560 c3        1 389      0.002000
     15 C15        -0.1830   -1.4090    1.2770 c3        1 389     -0.166000
     16 C16        -1.3240   -1.8350    0.2420 c3        1 389     -0.168000
     17 C17        -2.2140   -0.8980    0.2610 c3        1 389     -0.043000
     18 C18         1.1480    0.3350    0.2130 c2        1 389      0.301000
     19 O19         0.9250    1.0310   -0.7580 o         1 389     -0.387000
     20 C20         3.4380   -0.4020   -0.5230 c3        1 389     -0.024000
     21 N21         2.5140   -0.0460    0.5360 n         1 389     -0.365000
     22 C22         4.2260   -1.6640   -0.1170 c3        1 389     -0.051000
     23 C23         3.7710   -2.8400   -0.9660 c2        1 389     -0.069000
     24 C24         3.0650   -3.8860   -0.3840 c2        1 389     -0.124500
     25 C25         2.6540   -4.9600   -1.1590 c1        1 389     -0.131500
     26 C26         2.9500   -4.9910   -2.5180 c1        1 389     -0.130000
     27 C27         3.6540   -3.9490   -3.0970 c1        1 389     -0.130000
     28 C28         4.0660   -2.8710   -2.3210 c1        1 389     -0.121000
     29 C29         5.7280   -1.4240   -0.3360 c2        1 389     -0.069000
     30 C30         6.6490   -1.9080    0.5870 c2        1 389     -0.124500
     31 C31         8.0090   -1.7830    0.3410 c1        1 389     -0.131500
     32 C32         8.4500   -1.1750   -0.8250 c1        1 389     -0.130000
     33 C33         7.5320   -0.6920   -1.7450 c1        1 389     -0.130000
     34 C34         6.1690   -0.8170   -1.4990 c1        1 389     -0.121000
     35 HN1        -8.2340    3.1890    2.2940 hn        1 389      0.153500
     36 HN1A       -7.5140    3.5700    1.0390 hn        1 389      0.153500
     37 H2         -5.9750    3.8120    2.5060 h1        1 389      0.118000
     38 H3         -5.7810    2.5150    4.3480 hc        1 389      0.090333
     39 H3A        -7.3640    2.6590    4.1660 hc        1 389      0.090333
     40 H3B        -6.6200    1.3240    3.6870 hc        1 389      0.090333
     41 HN6        -3.8490    3.4640    1.4270 hn        1 389      0.254000
     42 H7         -3.8190    1.1440   -0.1250 h1        1 389      0.136000
     43 H8         -2.4940    2.7240   -1.6050 hc        1 389      0.102000
     44 H9         -4.5130    1.5240   -2.1830 hc        1 389      0.082500
     45 H9A        -5.3350    2.7960   -1.6660 hc        1 389      0.082500
     46 H9B        -4.3620    2.9310   -2.9330 hc        1 389      0.082500
     47 H10        -3.2640    4.8910   -1.5110 hc        1 389      0.082500
     48 H10A       -4.3750    4.4960   -0.4260 hc        1 389      0.082500
     49 H10B       -2.8290    4.5110   -0.0170 hc        1 389      0.082500
     50 H14         0.2340    0.3420    1.9980 h1        1 389      0.123000
     51 H15         0.6540   -1.8690    1.0600 hc        1 389      0.112500
     52 H15A       -0.4590   -1.6300    2.1900 hc        1 389      0.112500
     53 H16        -1.7260   -2.6850    0.5170 hc        1 389      0.096500
     54 H16A       -0.9460   -1.9190   -0.6580 hc        1 389      0.096500
     55 H17        -2.9060   -1.1020    0.9250 h1        1 389      0.104000
     56 H17A       -2.6150   -0.7950   -0.6250 h1        1 389      0.104000
     57 H20         4.0610    0.3370   -0.6740 h1        1 389      0.103500
     58 H20A        2.9390   -0.5790   -1.3440 h1        1 389      0.103500
     59 HN21        2.8020   -0.0180    1.4030 hn        1 389      0.249000
     60 H22         4.0610   -1.8610    0.8260 hc        1 389      0.098000
     61 H24         2.8580   -3.8640    0.5670 ha        1 389      0.129500
     62 H25         2.1590   -5.6940   -0.7500 ha        1 389      0.129500
     63 H26         2.6610   -5.7470   -3.0620 ha        1 389      0.130750
     64 H27         3.8610   -3.9710   -4.0490 ha        1 389      0.130750
     65 H28         4.5610   -2.1380   -2.7280 ha        1 389      0.147000
     66 H30         6.3390   -2.3360    1.4080 ha        1 389      0.129500
     67 H31         8.6570   -2.1230    0.9900 ha        1 389      0.129500
     68 H32         9.4100   -1.0860   -0.9980 ha        1 389      0.130750
     69 H33         7.8440   -0.2630   -2.5670 ha        1 389      0.130750
     70 H34         5.5230   -0.4780   -2.1470 ha        1 389      0.147000
@<TRIPOS>BOND
     1    1    2 1   
     2    1   35 1   
     3    1   36 1   
     4    2    3 1   
     5    2    4 1   
     6    2   37 1   
     7    3   38 1   
     8    3   39 1   
     9    3   40 1   
    10    4    5 1   
    11    4    6 1   
    12    6    7 1   
    13    6   41 1   
    14    7    8 1   
    15    7   11 1   
    16    7   42 1   
    17    8    9 1   
    18    8   10 1   
    19    8   43 1   
    20    9   44 1   
    21    9   45 1   
    22    9   46 1   
    23   10   47 1   
    24   10   48 1   
    25   10   49 1   
    26   11   12 1   
    27   11   13 1   
    28   13   14 1   
    29   13   17 1   
    30   14   15 1   
    31   14   18 1   
    32   14   50 1   
    33   15   16 1   
    34   15   51 1   
    35   15   52 1   
    36   16   17 1   
    37   16   53 1   
    38   16   54 1   
    39   17   55 1   
    40   17   56 1   
    41   18   19 1   
    42   18   21 1   
    43   20   21 1   
    44   20   22 1   
    45   20   57 1   
    46   20   58 1   
    47   21   59 1   
    48   22   23 1   
    49   22   29 1   
    50   22   60 1   
    51   23   24 1   
    52   23   28 1   
    53   24   25 1   
    54   24   61 1   
    55   25   62 1   
    56   26   27 1   
    57   26   63 1   
    58   27   64 1   
    59   28   65 1   
    60   29   30 1   
    61   29   34 1   
    62   30   31 1   
    63   30   66 1   
    64   31   67 1   
    65   32   33 1   
    66   32   68 1   
    67   33   69 1   
    68   34   70 1   
@<TRIPOS>SUBSTRUCTURE
     1 389         1 TEMP              0 ****  ****    0 ROOT
