@<TRIPOS>MOLECULE
389
   73    75     1     0     0
SMALL
bcc


@<TRIPOS>ATOM
      1 N1         -0.5910   -2.0300    0.7140 n4        1 389     -0.840600
      2 C2          0.4170   -1.1080    0.0890 c3        1 389      0.065500
      3 C3          1.0050   -0.1460    1.1160 c3        1 389     -0.164100
      4 C4          1.5390   -1.9150   -0.5940 c         1 389      0.512100
      5 O5          1.6000   -3.1360   -0.5930 o         1 389     -0.380100
      6 N6          2.5910   -1.1190   -1.2820 n4        1 389     -0.664800
      7 C7          3.5660   -1.9190   -2.1340 c3        1 389      0.063500
      8 C8          3.7830   -1.2300   -3.5010 c3        1 389     -0.086700
      9 C9          2.5090   -1.2110   -4.3180 c3        1 389     -0.128100
     10 C10         4.3750    0.1550   -3.3640 c3        1 389     -0.128100
     11 C11         4.9180   -2.0450   -1.3800 c         1 389      0.662100
     12 O12         5.1120   -1.3120   -0.3820 o         1 389     -0.619100
     13 N13         5.8700   -2.9110   -1.8380 n         1 389     -0.429800
     14 C14         7.1790   -3.0040   -1.1960 c3        1 389      0.042700
     15 C15         7.8160   -4.3360   -1.6600 c3        1 389     -0.096400
     16 C16         6.8000   -5.0110   -2.5770 c3        1 389     -0.092400
     17 C17         5.6550   -4.0080   -2.7780 c3        1 389      0.078000
     18 C18         8.0810   -1.8080   -1.5440 c         1 389      0.521100
     19 O19         7.7710   -0.8340   -2.2140 o         1 389     -0.407100
     20 C20        10.5270   -1.7700   -2.0220 c3        1 389      0.107800
     21 N21         9.4600   -1.8350   -0.9630 n4        1 389     -0.673800
     22 C22        11.9400   -1.7320   -1.4090 c3        1 389      0.038900
     23 C23        12.9050   -1.5190   -2.5340 ca        1 389     -0.144800
     24 C24        13.0650   -0.2610   -3.1270 ca        1 389     -0.130250
     25 C25        13.9850   -0.0860   -4.1590 ca        1 389     -0.111250
     26 C26        14.7520   -1.1630   -4.6050 ca        1 389     -0.093000
     27 C27        14.5970   -2.4180   -4.0140 ca        1 389     -0.111250
     28 C28        13.6770   -2.5980   -2.9830 ca        1 389     -0.130250
     29 C29        12.0540   -0.7140   -0.3170 ca        1 389     -0.144800
     30 C30        11.4060    0.5280   -0.3810 ca        1 389     -0.130250
     31 C31        11.5710    1.4600    0.6410 ca        1 389     -0.111250
     32 C32        12.3870    1.1670    1.7350 ca        1 389     -0.093000
     33 C33        13.0390   -0.0640    1.8020 ca        1 389     -0.111250
     34 C34        12.8730   -1.0020    0.7820 ca        1 389     -0.130250
     35 HN1        -0.1740   -2.5420    1.5060 hn        1 389      0.494800
     36 HN1A       -1.3850   -1.4700    1.0670 hn        1 389      0.494800
     37 H2         -0.1390   -0.5200   -0.7140 hx        1 389      0.160700
     38 H3          1.5560    0.6770    0.5940 hc        1 389      0.114700
     39 H3A         0.1950    0.3510    1.7170 hc        1 389      0.114700
     40 H3B         1.6980   -0.6630    1.8260 hc        1 389      0.114700
     41 HN6         2.1450   -0.4140   -1.8920 hn        1 389      0.499300
     42 H7          3.1210   -2.9480   -2.3000 hx        1 389      0.141700
     43 H8          4.5300   -1.8840   -4.0440 hc        1 389      0.116700
     44 H9          2.7590   -0.9390   -5.3780 hc        1 389      0.069533
     45 H9A         1.7820   -0.4460   -3.9500 hc        1 389      0.069533
     46 H9B         2.0180   -2.2130   -4.3320 hc        1 389      0.069533
     47 H10         4.6780    0.5290   -4.3770 hc        1 389      0.069533
     48 H10A        5.2870    0.1400   -2.7160 hc        1 389      0.069533
     49 H10B        3.6410    0.8860   -2.9480 hc        1 389      0.069533
     50 H14         7.0410   -2.9810   -0.0700 h1        1 389      0.121700
     51 H15         8.7740   -4.1660   -2.2110 hc        1 389      0.088700
     52 H15A        8.0350   -4.9780   -0.7670 hc        1 389      0.088700
     53 H16         6.4170   -5.9570   -2.1160 hc        1 389      0.102700
     54 H16A        7.2590   -5.2770   -3.5630 hc        1 389      0.102700
     55 H17         5.6660   -3.6070   -3.8300 h1        1 389      0.075200
     56 H17A        4.6600   -4.4950   -2.5830 h1        1 389      0.075200
     57 H20        10.4250   -2.6780   -2.6810 hx        1 389      0.113200
     58 H20A       10.3450   -0.8420   -2.6380 hx        1 389      0.113200
     59 HN21        9.5960   -2.6810   -0.4000 hn        1 389      0.474300
     60 H22        12.1460   -2.7500   -0.9570 hc        1 389      0.071700
     61 H24        12.4860    0.6000   -2.7610 ha        1 389      0.133250
     62 H25        14.1150    0.9090   -4.6150 ha        1 389      0.158750
     63 H26        15.4860   -1.0210   -5.4150 ha        1 389      0.164000
     64 H27        15.2110   -3.2680   -4.3560 ha        1 389      0.158750
     65 H28        13.5780   -3.5880   -2.5130 ha        1 389      0.133250
     66 H30        10.8160    0.8080   -1.2680 ha        1 389      0.133250
     67 H31        11.0780    2.4430    0.5730 ha        1 389      0.158750
     68 H32        12.5310    1.9130    2.5340 ha        1 389      0.164000
     69 H33        13.7030   -0.2930    2.6530 ha        1 389      0.158750
     70 H34        13.4150   -1.9600    0.8330 ha        1 389      0.133250
     71 H13        -0.9400   -2.7160    0.0280 hn        1 389      0.494800
     72 H62         3.1520   -0.6150   -0.5540 hn        1 389      0.499300
     73 H212        9.5960   -1.0090   -0.3460 hn        1 389      0.474300
@<TRIPOS>BOND
     1    1    2 1   
     2    1   35 1   
     3    1   36 1   
     4    1   71 1   
     5    2    3 1   
     6    2    4 1   
     7    2   37 1   
     8    3   38 1   
     9    3   39 1   
    10    3   40 1   
    11    4    5 2   
    12    4    6 1   
    13    6    7 1   
    14    6   41 1   
    15    6   72 1   
    16    7    8 1   
    17    7   11 1   
    18    7   42 1   
    19    8    9 1   
    20    8   10 1   
    21    8   43 1   
    22    9   44 1   
    23    9   45 1   
    24    9   46 1   
    25   10   47 1   
    26   10   48 1   
    27   10   49 1   
    28   11   12 2   
    29   11   13 1   
    30   13   14 1   
    31   13   17 1   
    32   14   15 1   
    33   14   18 1   
    34   14   50 1   
    35   15   16 1   
    36   15   51 1   
    37   15   52 1   
    38   16   17 1   
    39   16   53 1   
    40   16   54 1   
    41   17   55 1   
    42   17   56 1   
    43   18   19 2   
    44   18   21 1   
    45   20   21 1   
    46   20   22 1   
    47   20   57 1   
    48   20   58 1   
    49   21   59 1   
    50   21   73 1   
    51   22   23 1   
    52   22   29 1   
    53   22   60 1   
    54   23   24 ar  
    55   23   28 ar  
    56   24   25 ar  
    57   24   61 1   
    58   25   26 ar  
    59   25   62 1   
    60   26   27 ar  
    61   26   63 1   
    62   27   28 ar  
    63   27   64 1   
    64   28   65 1   
    65   29   30 ar  
    66   29   34 ar  
    67   30   31 ar  
    68   30   66 1   
    69   31   32 ar  
    70   31   67 1   
    71   32   33 ar  
    72   32   68 1   
    73   33   34 ar  
    74   33   69 1   
    75   34   70 1   
@<TRIPOS>SUBSTRUCTURE
     1 389         1 TEMP              0 ****  ****    0 ROOT
