@<TRIPOS>MOLECULE
389
   73    75     1     0     0
SMALL
bcc


@<TRIPOS>ATOM
      1 N1         -0.6030   -2.0080    0.6920 nz        1 389     -0.840600
      2 C2          0.4090   -1.0900    0.0650 c3        1 389      0.065500
      3 C3          0.9950   -0.1240    1.0900 c3        1 389     -0.164100
      4 C4          1.5320   -1.9020   -0.6100 c         1 389      0.512100
      5 O5          1.5900   -3.1230   -0.6030 o         1 389     -0.380100
      6 N6          2.5870   -1.1110   -1.3000 ny        1 389     -0.664800
      7 C7          3.5630   -1.9170   -2.1450 c3        1 389      0.063500
      8 C8          3.7860   -1.2340   -3.5140 c3        1 389     -0.086700
      9 C9          2.5150   -1.2160   -4.3350 c3        1 389     -0.128100
     10 C10         4.3800    0.1500   -3.3810 c3        1 389     -0.128100
     11 C11         4.9120   -2.0410   -1.3850 c         1 389      0.662100
     12 O12         5.1040   -1.3040   -0.3900 o         1 389     -0.619100
     13 N13         5.8640   -2.9110   -1.8360 n         1 389     -0.429800
     14 C14         7.1710   -3.0040   -1.1880 c3        1 389      0.042700
     15 C15         7.8070   -4.3390   -1.6440 c3        1 389     -0.096400
     16 C16         6.7940   -5.0160   -2.5620 c3        1 389     -0.092400
     17 C17         5.6510   -4.0120   -2.7720 c3        1 389      0.078000
     18 C18         8.0760   -1.8110   -1.5390 c         1 389      0.521100
     19 O19         7.7700   -0.8400   -2.2150 o         1 389     -0.407100
     20 C20        10.5240   -1.7790   -2.0070 c3        1 389      0.107800
     21 N21         9.4530   -1.8370   -0.9520 ny        1 389     -0.673800
     22 C22        11.9350   -1.7380   -1.3870 c3        1 389      0.038900
     23 C23        12.9050   -1.5320   -2.5100 ca        1 389     -0.144800
     24 C24        13.0690   -0.2780   -3.1080 ca        1 389     -0.130250
     25 C25        13.9940   -0.1090   -4.1370 ca        1 389     -0.111250
     26 C26        14.7620   -1.1890   -4.5740 ca        1 389     -0.093000
     27 C27        14.6030   -2.4410   -3.9770 ca        1 389     -0.111250
     28 C28        13.6780   -2.6150   -2.9490 ca        1 389     -0.130250
     29 C29        12.0450   -0.7150   -0.3010 ca        1 389     -0.144800
     30 C30        11.3990    0.5270   -0.3750 ca        1 389     -0.130250
     31 C31        11.5600    1.4650    0.6430 ca        1 389     -0.111250
     32 C32        12.3700    1.1770    1.7430 ca        1 389     -0.093000
     33 C33        13.0210   -0.0540    1.8190 ca        1 389     -0.111250
     34 C34        12.8590   -0.9970    0.8040 ca        1 389     -0.130250
     35 HN1        -1.3960   -1.4440    1.0400 hn        1 389      0.494800
     36 HN1A       -0.9510   -2.6960    0.0090 hn        1 389      0.494800
     37 H2         -0.1430   -0.5050   -0.7420 hx        1 389      0.160700
     38 H3          1.5490    0.6960    0.5650 hc        1 389      0.114700
     39 H3A         0.1840    0.3770    1.6860 hc        1 389      0.114700
     40 H3B         1.6860   -0.6380    1.8040 hc        1 389      0.114700
     41 HN6         2.1430   -0.4090   -1.9150 hn        1 389      0.499300
     42 H7          3.1170   -2.9450   -2.3070 hx        1 389      0.141700
     43 H8          4.5340   -1.8910   -4.0510 hc        1 389      0.116700
     44 H9          2.7690   -0.9500   -5.3950 hc        1 389      0.069533
     45 H9A         2.0220   -2.2180   -4.3460 hc        1 389      0.069533
     46 H9B         1.7890   -0.4490   -3.9730 hc        1 389      0.069533
     47 H10         3.6460    0.8850   -2.9710 hc        1 389      0.069533
     48 H10A        5.2890    0.1370   -2.7300 hc        1 389      0.069533
     49 H10B        4.6870    0.5190   -4.3950 hc        1 389      0.069533
     50 H14         7.0290   -2.9760   -0.0640 h1        1 389      0.121700
     51 H15         8.7680   -4.1730   -2.1930 hc        1 389      0.088700
     52 H15A        8.0220   -4.9770   -0.7490 hc        1 389      0.088700
     53 H16         7.2560   -5.2870   -3.5460 hc        1 389      0.102700
     54 H16A        6.4070   -5.9600   -2.1000 hc        1 389      0.102700
     55 H17         4.6550   -4.4970   -2.5780 h1        1 389      0.075200
     56 H17A        5.6670   -3.6150   -3.8260 h1        1 389      0.075200
     57 H20        10.3460   -0.8530   -2.6280 hx        1 389      0.113200
     58 H20A       10.4250   -2.6890   -2.6610 hx        1 389      0.113200
     59 HN21        9.5870   -1.0080   -0.3390 hn        1 389      0.474300
     60 H22        12.1390   -2.7540   -0.9300 hc        1 389      0.071700
     61 H24        12.4890    0.5860   -2.7500 ha        1 389      0.133250
     62 H25        14.1280    0.8830   -4.5970 ha        1 389      0.158750
     63 H26        15.5000   -1.0520   -5.3810 ha        1 389      0.164000
     64 H27        15.2170   -3.2930   -4.3120 ha        1 389      0.158750
     65 H28        13.5750   -3.6020   -2.4750 ha        1 389      0.133250
     66 H30        10.8130    0.8030   -1.2650 ha        1 389      0.133250
     67 H31        11.0680    2.4480    0.5680 ha        1 389      0.158750
     68 H32        12.5110    1.9270    2.5380 ha        1 389      0.164000
     69 H33        13.6800   -0.2790    2.6740 ha        1 389      0.158750
     70 H34        13.3990   -1.9560    0.8620 ha        1 389      0.133250
     71 H13        -0.1890   -2.5160    1.4880 hn        1 389      0.494800
     72 H62         3.1460   -0.6040   -0.5730 hn        1 389      0.499300
     73 H212        9.5850   -2.6800   -0.3840 hn        1 389      0.474300
@<TRIPOS>BOND
     1    1    2 1   
     2    1   35 1   
     3    1   36 1   
     4    1   71 1   
     5    2    3 1   
     6    2    4 1   
     7    2   37 1   
     8    3   38 1   
     9    3   39 1   
    10    3   40 1   
    11    4    5 2   
    12    4    6 1   
    13    6    7 1   
    14    6   41 1   
    15    6   72 1   
    16    7    8 1   
    17    7   11 1   
    18    7   42 1   
    19    8    9 1   
    20    8   10 1   
    21    8   43 1   
    22    9   44 1   
    23    9   45 1   
    24    9   46 1   
    25   10   47 1   
    26   10   48 1   
    27   10   49 1   
    28   11   12 2   
    29   11   13 1   
    30   13   14 1   
    31   13   17 1   
    32   14   15 1   
    33   14   18 1   
    34   14   50 1   
    35   15   16 1   
    36   15   51 1   
    37   15   52 1   
    38   16   17 1   
    39   16   53 1   
    40   16   54 1   
    41   17   55 1   
    42   17   56 1   
    43   18   19 2   
    44   18   21 1   
    45   20   21 1   
    46   20   22 1   
    47   20   57 1   
    48   20   58 1   
    49   21   59 1   
    50   21   73 1   
    51   22   23 1   
    52   22   29 1   
    53   22   60 1   
    54   23   24 ar  
    55   23   28 ar  
    56   24   25 ar  
    57   24   61 1   
    58   25   26 ar  
    59   25   62 1   
    60   26   27 ar  
    61   26   63 1   
    62   27   28 ar  
    63   27   64 1   
    64   28   65 1   
    65   29   30 ar  
    66   29   34 ar  
    67   30   31 ar  
    68   30   66 1   
    69   31   32 ar  
    70   31   67 1   
    71   32   33 ar  
    72   32   68 1   
    73   33   34 ar  
    74   33   69 1   
    75   34   70 1   
@<TRIPOS>SUBSTRUCTURE
     1 389         1 TEMP              0 ****  ****    0 ROOT
