@<TRIPOS>MOLECULE
389
   73    75     1     0     0
SMALL
bcc


@<TRIPOS>ATOM
      1 N1         -0.5950   -2.0290    0.7080 n4        1 389     -0.840600
      2 C2          0.4150   -1.1050    0.0870 c3        1 389      0.065500
      3 C3          1.0040   -0.1490    1.1200 c3        1 389     -0.164100
      4 C4          1.5360   -1.9110   -0.5990 c         1 389      0.512100
      5 O5          1.5940   -3.1320   -0.6050 o         1 389     -0.380100
      6 N6          2.5890   -1.1130   -1.2830 n4        1 389     -0.664800
      7 C7          3.5630   -1.9110   -2.1390 c3        1 389      0.063500
      8 C8          3.7820   -1.2140   -3.5010 c3        1 389     -0.086700
      9 C9          2.5090   -1.1870   -4.3190 c3        1 389     -0.128100
     10 C10         4.3770    0.1690   -3.3570 c3        1 389     -0.128100
     11 C11         4.9140   -2.0430   -1.3840 c         1 389      0.662100
     12 O12         5.1090   -1.3160   -0.3820 o         1 389     -0.619100
     13 N13         5.8650   -2.9080   -1.8470 n         1 389     -0.429800
     14 C14         7.1740   -3.0070   -1.2040 c3        1 389      0.042700
     15 C15         7.8090   -4.3380   -1.6760 c3        1 389     -0.096400
     16 C16         6.7930   -5.0050   -2.5980 c3        1 389     -0.092400
     17 C17         5.6490   -3.9990   -2.7930 c3        1 389      0.078000
     18 C18         8.0780   -1.8110   -1.5440 c         1 389      0.521100
     19 O19         7.7700   -0.8320   -2.2090 o         1 389     -0.407100
     20 C20        10.5240   -1.7720   -2.0200 c3        1 389      0.107800
     21 N21         9.4560   -1.8430   -0.9620 n4        1 389     -0.673800
     22 C22        11.9370   -1.7390   -1.4040 c3        1 389      0.038900
     23 C23        12.9030   -1.5190   -2.5270 ca        1 389     -0.144800
     24 C24        13.0660   -0.2570   -3.1110 ca        1 389     -0.130250
     25 C25        13.9870   -0.0760   -4.1410 ca        1 389     -0.111250
     26 C26        14.7540   -1.1510   -4.5930 ca        1 389     -0.093000
     27 C27        14.5960   -2.4100   -4.0110 ca        1 389     -0.111250
     28 C28        13.6750   -2.5960   -2.9820 ca        1 389     -0.130250
     29 C29        12.0500   -0.7290   -0.3060 ca        1 389     -0.144800
     30 C30        11.4030    0.5140   -0.3630 ca        1 389     -0.130250
     31 C31        11.5670    1.4400    0.6660 ca        1 389     -0.111250
     32 C32        12.3810    1.1390    1.7600 ca        1 389     -0.093000
     33 C33        13.0330   -0.0930    1.8190 ca        1 389     -0.111250
     34 C34        12.8680   -1.0240    0.7930 ca        1 389     -0.130250
     35 HN1        -1.3880   -1.4690    1.0630 hn        1 389      0.494800
     36 HN1A       -0.9450   -2.7110    0.0180 hn        1 389      0.494800
     37 H2         -0.1400   -0.5130   -0.7130 hx        1 389      0.160700
     38 H3          0.1940    0.3450    1.7230 hc        1 389      0.114700
     39 H3A         1.5570    0.6760    0.6020 hc        1 389      0.114700
     40 H3B         1.6960   -0.6710    1.8270 hc        1 389      0.114700
     41 HN6         3.1510   -0.6140   -0.5520 hn        1 389      0.499300
     42 H7          3.1170   -2.9370   -2.3100 hx        1 389      0.141700
     43 H8          4.5280   -1.8660   -4.0480 hc        1 389      0.116700
     44 H9          2.0150   -2.1890   -4.3390 hc        1 389      0.069533
     45 H9A         1.7840   -0.4230   -3.9470 hc        1 389      0.069533
     46 H9B         2.7600   -0.9100   -5.3770 hc        1 389      0.069533
     47 H10         4.6810    0.5480   -4.3670 hc        1 389      0.069533
     48 H10A        3.6440    0.8990   -2.9370 hc        1 389      0.069533
     49 H10B        5.2880    0.1490   -2.7080 hc        1 389      0.069533
     50 H14         7.0350   -2.9910   -0.0790 h1        1 389      0.121700
     51 H15         8.7670   -4.1650   -2.2270 hc        1 389      0.088700
     52 H15A        8.0270   -4.9840   -0.7880 hc        1 389      0.088700
     53 H16         7.2520   -5.2670   -3.5850 hc        1 389      0.102700
     54 H16A        6.4070   -5.9530   -2.1430 hc        1 389      0.102700
     55 H17         5.6620   -3.5920   -3.8430 h1        1 389      0.075200
     56 H17A        4.6540   -4.4860   -2.6020 h1        1 389      0.075200
     57 H20        10.4230   -2.6750   -2.6840 hx        1 389      0.113200
     58 H20A       10.3440   -0.8390   -2.6290 hx        1 389      0.113200
     59 HN21        9.5910   -2.6930   -0.4050 hn        1 389      0.474300
     60 H22        12.1420   -2.7600   -0.9590 hc        1 389      0.071700
     61 H24        12.4870    0.6020   -2.7400 ha        1 389      0.133250
     62 H25        14.1190    0.9220   -4.5890 ha        1 389      0.158750
     63 H26        15.4890   -1.0040   -5.4010 ha        1 389      0.164000
     64 H27        15.2090   -3.2570   -4.3580 ha        1 389      0.158750
     65 H28        13.5740   -3.5890   -2.5200 ha        1 389      0.133250
     66 H30        10.8150    0.8010   -1.2480 ha        1 389      0.133250
     67 H31        11.0750    2.4230    0.6040 ha        1 389      0.158750
     68 H32        12.5250    1.8800    2.5630 ha        1 389      0.164000
     69 H33        13.6950   -0.3280    2.6690 ha        1 389      0.158750
     70 H34        13.4090   -1.9830    0.8370 ha        1 389      0.133250
     71 H13        -0.1790   -2.5460    1.4970 hn        1 389      0.494800
     72 H62         2.1440   -0.4050   -1.8890 hn        1 389      0.499300
     73 H212        9.5920   -1.0220   -0.3400 hn        1 389      0.474300
@<TRIPOS>BOND
     1    1    2 1   
     2    1   35 1   
     3    1   36 1   
     4    1   71 1   
     5    2    3 1   
     6    2    4 1   
     7    2   37 1   
     8    3   38 1   
     9    3   39 1   
    10    3   40 1   
    11    4    5 2   
    12    4    6 1   
    13    6    7 1   
    14    6   41 1   
    15    6   72 1   
    16    7    8 1   
    17    7   11 1   
    18    7   42 1   
    19    8    9 1   
    20    8   10 1   
    21    8   43 1   
    22    9   44 1   
    23    9   45 1   
    24    9   46 1   
    25   10   47 1   
    26   10   48 1   
    27   10   49 1   
    28   11   12 2   
    29   11   13 1   
    30   13   14 1   
    31   13   17 1   
    32   14   15 1   
    33   14   18 1   
    34   14   50 1   
    35   15   16 1   
    36   15   51 1   
    37   15   52 1   
    38   16   17 1   
    39   16   53 1   
    40   16   54 1   
    41   17   55 1   
    42   17   56 1   
    43   18   19 2   
    44   18   21 1   
    45   20   21 1   
    46   20   22 1   
    47   20   57 1   
    48   20   58 1   
    49   21   59 1   
    50   21   73 1   
    51   22   23 1   
    52   22   29 1   
    53   22   60 1   
    54   23   24 ar  
    55   23   28 ar  
    56   24   25 ar  
    57   24   61 1   
    58   25   26 ar  
    59   25   62 1   
    60   26   27 ar  
    61   26   63 1   
    62   27   28 ar  
    63   27   64 1   
    64   28   65 1   
    65   29   30 ar  
    66   29   34 ar  
    67   30   31 ar  
    68   30   66 1   
    69   31   32 ar  
    70   31   67 1   
    71   32   33 ar  
    72   32   68 1   
    73   33   34 ar  
    74   33   69 1   
    75   34   70 1   
@<TRIPOS>SUBSTRUCTURE
     1 389         1 TEMP              0 ****  ****    0 ROOT
