@<TRIPOS>MOLECULE
38A
   33    31     1     0     0
SMALL
bcc


@<TRIPOS>ATOM
      1 CAK         0.1330   -1.0220   -0.0680 c3        1 38A      0.003000
      2 CAC         1.4860   -0.3960    0.0180 c2        1 38A     -0.062000
      3 CAB         2.1300   -0.1410    1.1900 c2        1 38A     -0.087000
      4 CAG         1.5380   -0.2580    2.4760 c1        1 38A     -0.071000
      5 CAD         2.0810   -0.0070   -1.2980 c3        1 38A     -0.029000
      6 CAI         1.5470    1.3560   -1.7210 c3        1 38A     -0.205000
      7 CAE         3.5870    0.0020   -1.2990 c2        1 38A     -0.105000
      8 CAL         4.1770   -0.0150   -2.5190 c2        1 38A     -0.043000
      9 CAF         4.2900    0.0430   -0.0230 c2        1 38A      0.004000
     10 CAH         5.5950   -0.2540    0.1160 c2        1 38A     -0.218000
     11 CAA         3.4890    0.3970    1.1530 c2        1 38A     -0.203000
     12 CAJ         4.0110    1.1790    2.1360 c2        1 38A      0.073000
     13 H1          0.2470   -2.1430   -0.0720 h1        1 38A      0.077500
     14 H2         -0.3890   -0.7080   -1.0140 h1        1 38A      0.077500
     15 H4          0.8790   -1.1030    2.7040 ha        1 38A      0.089000
     16 H5         -0.0960    1.3580    2.3840 ha        1 38A      0.005750
     17 H6         -0.4680    0.9670    2.7980 ha        1 38A      0.005750
     18 H7          1.8750    2.1430   -1.0020 hc        1 38A      0.081000
     19 H8          0.4310    1.3420   -1.7520 hc        1 38A      0.081000
     20 H9          1.7390   -0.7680   -2.0630 hc        1 38A      0.089000
     21 H10         3.5860   -0.0420   -3.4500 h4        1 38A      0.121000
     22 H11         1.9330    1.6150   -2.7360 hc        1 38A      0.081000
     23 H13         7.8550   -0.2520   -2.2840 ha        1 38A      0.005750
     24 H14         7.9590   -0.2290   -2.9530 ha        1 38A      0.005750
     25 H15         6.2450   -0.5390   -0.7200 ha        1 38A      0.121000
     26 H16         5.0260    1.6140    2.0750 h4        1 38A      0.157000
     27 H17         6.0850   -0.2330    1.0980 ha        1 38A      0.121000
     28 O1          3.4060    1.5520    3.2850 oh        1 38A     -0.285000
     29 O2          5.5430   -0.0040   -2.6690 oh        1 38A     -0.252000
     30 O4         -0.6400   -0.6310    1.0580 oh        1 38A     -0.337000
     31 H3          2.5130    1.1220    3.3490 ho        1 38A      0.277000
     32 H12         5.7260    0.1200   -3.6110 ho        1 38A      0.212000
     33 H18        -1.5310   -0.9740    0.9210 ho        1 38A      0.207000
@<TRIPOS>BOND
     1    1    2 1   
     2    1   13 1   
     3    1   14 1   
     4    1   30 1   
     5    2    3 1   
     6    2    5 1   
     7    3    4 1   
     8    3   11 1   
     9    4   15 1   
    10    5    6 1   
    11    5    7 1   
    12    5   20 1   
    13    6   18 1   
    14    6   19 1   
    15    6   22 1   
    16    7    8 1   
    17    7    9 1   
    18    8   21 1   
    19    8   29 1   
    20    9   10 1   
    21    9   11 1   
    22   10   25 1   
    23   10   27 1   
    24   11   12 1   
    25   12   26 1   
    26   12   28 1   
    27   16   17 1   
    28   23   24 1   
    29   28   31 1   
    30   29   32 1   
    31   30   33 1   
@<TRIPOS>SUBSTRUCTURE
     1 38A         1 TEMP              0 ****  ****    0 ROOT
