@<TRIPOS>MOLECULE
38B
   30    32     1     0     0
SMALL
bcc


@<TRIPOS>ATOM
      1 CAA        -0.0280    0.0450    0.0120 c3        1 38B     -0.149400
      2 CAB         1.4820    0.0260    0.0490 cc        1 38B      0.517900
      3 NAC         2.0950   -0.0410    1.2420 nd        1 38B     -0.675700
      4 NAF         2.1370    0.0830   -1.1790 ns        1 38B     -0.490400
      5 CAG         3.5580    0.0760   -1.3010 c         1 38B      0.747100
      6 OAK         4.0390    0.1670   -2.4410 o         1 38B     -0.611500
      7 CAH         4.2430   -0.0200   -0.0340 cc        1 38B     -0.446200
      8 CAD         3.4680   -0.0620    1.1520 cd        1 38B      0.511700
      9 OAE         4.3490   -0.1400    2.2420 os        1 38B     -0.076100
     10 NAJ         5.5980   -0.1540    1.7890 nd        1 38B     -0.348300
     11 CAI         5.6220   -0.0980    0.4380 cc        1 38B      0.473800
     12 CAL         6.8180   -0.0950   -0.3880 ca        1 38B     -0.179500
     13 CAM         6.8910    0.7770   -1.4830 ca        1 38B     -0.052000
     14 CAN         8.0360    0.8380   -2.2730 ca        1 38B     -0.171000
     15 CAQ         9.1260    0.0170   -1.9860 ca        1 38B     -0.075000
     16 CAP         9.0730   -0.8760   -0.9190 ca        1 38B     -0.217000
     17 CAO         7.9200   -0.9410   -0.1220 ca        1 38B      0.165100
     18 OAR         7.7690   -1.8310    0.9190 os        1 38B     -0.311900
     19 CAS         8.9200   -2.5830    1.2860 c3        1 38B      0.113700
     20 H1         -0.3810    0.9840   -0.4820 hc        1 38B      0.076367
     21 H2         -0.4000   -0.8380   -0.5650 hc        1 38B      0.076367
     22 H3         -0.4550    0.0020    1.0450 hc        1 38B      0.076367
     23 H4          1.5990    0.1330   -2.0160 hn        1 38B      0.339500
     24 H5          6.0190    1.4050   -1.7270 ha        1 38B      0.152000
     25 H6          8.0740    1.5300   -3.1260 ha        1 38B      0.139000
     26 H7         10.0320    0.0680   -2.6070 ha        1 38B      0.134000
     27 H8          9.9340   -1.5250   -0.7120 ha        1 38B      0.140000
     28 H9          9.7710   -1.9090    1.5490 h1        1 38B      0.046700
     29 H10         8.5750   -3.1550    2.1850 h1        1 38B      0.046700
     30 H11         9.2100   -3.2820    0.4630 h1        1 38B      0.046700
@<TRIPOS>BOND
     1    1    2 1   
     2    1   20 1   
     3    1   21 1   
     4    1   22 1   
     5    2    3 2   
     6    2    4 1   
     7    3    8 1   
     8    4    5 1   
     9    4   23 1   
    10    5    6 2   
    11    5    7 1   
    12    7    8 2   
    13    7   11 1   
    14    8    9 1   
    15    9   10 1   
    16   10   11 2   
    17   11   12 1   
    18   12   13 ar  
    19   12   17 ar  
    20   13   14 ar  
    21   13   24 1   
    22   14   15 ar  
    23   14   25 1   
    24   15   16 ar  
    25   15   26 1   
    26   16   17 ar  
    27   16   27 1   
    28   17   18 1   
    29   18   19 1   
    30   19   28 1   
    31   19   29 1   
    32   19   30 1   
@<TRIPOS>SUBSTRUCTURE
     1 38B         1 TEMP              0 ****  ****    0 ROOT
