@<TRIPOS>MOLECULE
38B
   30    32     1     0     0
SMALL
bcc


@<TRIPOS>ATOM
      1 CAA        -0.0290    0.0390    0.0110 c3        1 38B     -0.149400
      2 CAB         1.4820    0.0220    0.0490 cc        1 38B      0.517900
      3 NAC         2.0930   -0.0510    1.2420 nd        1 38B     -0.675700
      4 NAF         2.1380    0.0850   -1.1780 n         1 38B     -0.490400
      5 CAG         3.5580    0.0810   -1.3000 c         1 38B      0.747100
      6 OAK         4.0400    0.1780   -2.4390 o         1 38B     -0.611500
      7 CAH         4.2430   -0.0220   -0.0330 cc        1 38B     -0.446200
      8 CAD         3.4670   -0.0710    1.1530 cd        1 38B      0.511700
      9 OAE         4.3470   -0.1540    2.2420 os        1 38B     -0.076100
     10 NAJ         5.5960   -0.1650    1.7910 nd        1 38B     -0.348300
     11 CAI         5.6210   -0.1020    0.4400 cc        1 38B      0.473800
     12 CAL         6.8180   -0.0930   -0.3860 ca        1 38B     -0.179500
     13 CAM         6.8920    0.7840   -1.4750 ca        1 38B     -0.052000
     14 CAN         8.0370    0.8510   -2.2640 ca        1 38B     -0.171000
     15 CAQ         9.1270    0.0290   -1.9810 ca        1 38B     -0.075000
     16 CAP         9.0740   -0.8700   -0.9190 ca        1 38B     -0.217000
     17 CAO         7.9210   -0.9400   -0.1230 ca        1 38B      0.165100
     18 OAR         7.7690   -1.8360    0.9130 os        1 38B     -0.311900
     19 CAS         8.9200   -2.5900    1.2750 c3        1 38B      0.113700
     20 H1         -0.3820    0.9810   -0.4790 hc        1 38B      0.076367
     21 H2         -0.3990   -0.8420   -0.5710 hc        1 38B      0.076367
     22 H3         -0.4560   -0.0090    1.0430 hc        1 38B      0.076367
     23 H4          1.6000    0.1400   -2.0160 hn        1 38B      0.339500
     24 H5          6.0190    1.4140   -1.7160 ha        1 38B      0.152000
     25 H6          8.0750    1.5480   -3.1140 ha        1 38B      0.139000
     26 H7         10.0340    0.0840   -2.6020 ha        1 38B      0.134000
     27 H8          9.9350   -1.5200   -0.7150 ha        1 38B      0.140000
     28 H9          9.7700   -1.9170    1.5430 h1        1 38B      0.046700
     29 H10         8.5750   -3.1670    2.1710 h1        1 38B      0.046700
     30 H11         9.2100   -3.2840    0.4490 h1        1 38B      0.046700
@<TRIPOS>BOND
     1    1    2 1   
     2    1   20 1   
     3    1   21 1   
     4    1   22 1   
     5    2    3 2   
     6    2    4 1   
     7    3    8 1   
     8    4    5 1   
     9    4   23 1   
    10    5    6 2   
    11    5    7 1   
    12    7    8 2   
    13    7   11 1   
    14    8    9 1   
    15    9   10 1   
    16   10   11 2   
    17   11   12 1   
    18   12   13 ar  
    19   12   17 ar  
    20   13   14 ar  
    21   13   24 1   
    22   14   15 ar  
    23   14   25 1   
    24   15   16 ar  
    25   15   26 1   
    26   16   17 ar  
    27   16   27 1   
    28   17   18 1   
    29   18   19 1   
    30   19   28 1   
    31   19   29 1   
    32   19   30 1   
@<TRIPOS>SUBSTRUCTURE
     1 38B         1 TEMP              0 ****  ****    0 ROOT
