@<TRIPOS>MOLECULE
38C
   40    42     1     0     0
SMALL
bcc


@<TRIPOS>ATOM
      1 FAJ         0.1410    0.2970    0.8720 f         1 38C     -0.249633
      2 CAI         1.2410   -0.0090    0.1040 c3        1 38C      0.688200
      3 FAK         2.0840   -0.6360    0.9920 f         1 38C     -0.249633
      4 FAL         0.7970   -1.0340   -0.6980 f         1 38C     -0.249633
      5 CAH         1.8500    1.1750   -0.6300 ca        1 38C     -0.175300
      6 CAG         2.7400    2.0160    0.0710 ca        1 38C     -0.137000
      7 CAF         3.2980    3.1060   -0.5570 ca        1 38C     -0.143300
      8 CAM         1.5200    1.4170   -1.9460 ca        1 38C     -0.128300
      9 CAN         2.0810    2.5380   -2.6240 ca        1 38C      0.320300
     10 CAE         2.9860    3.3960   -1.9140 ca        1 38C      0.272300
     11 NAD         3.5590    4.5020   -2.5400 nb        1 38C     -0.626000
     12 NAO         1.7330    2.7800   -3.9400 nb        1 38C     -0.772000
     13 CAP         2.3050    3.8440   -4.5370 ca        1 38C      0.572900
     14 CAC         3.2570    4.7310   -3.7940 ca        1 38C      0.287500
     15 CAB         3.8610    5.9420   -4.5580 c         1 38C      0.827100
     16 OBA         5.1060    6.0220   -4.6300 o         1 38C     -0.791800
     17 OAA         3.0200    6.7210   -5.0850 o         1 38C     -0.791800
     18 NAQ         2.0760    4.1240   -5.8770 nu        1 38C     -0.843900
     19 CAR         1.0220    3.4510   -6.5920 c3        1 38C      0.256100
     20 CAS         0.8540    3.9290   -8.0060 ca        1 38C     -0.116300
     21 CAZ         1.9620    4.1560   -8.8330 ca        1 38C     -0.085000
     22 CAY         1.7900    4.5550  -10.1530 ca        1 38C     -0.181500
     23 CAV         0.4870    4.7260  -10.6560 ca        1 38C      0.112100
     24 OAW         0.4190    5.1040  -11.9870 os        1 38C     -0.332900
     25 CAX        -0.8730    5.4370  -12.4730 c3        1 38C      0.116700
     26 CAU        -0.6270    4.5060   -9.8400 ca        1 38C     -0.181500
     27 CAT        -0.4330    4.1130   -8.5160 ca        1 38C     -0.085000
     28 H1          2.9820    1.7850    1.1180 ha        1 38C      0.134000
     29 H2          3.9950    3.7650   -0.0160 ha        1 38C      0.149000
     30 H3          0.8280    0.7490   -2.4830 ha        1 38C      0.151000
     31 H5          1.2650    2.3460   -6.6230 h1        1 38C      0.048700
     32 H6          2.9820    4.0260   -8.4350 ha        1 38C      0.145000
     33 H7          2.6520    4.7420  -10.8070 ha        1 38C      0.137000
     34 H8         -0.6800    5.7830  -13.5200 h1        1 38C      0.038033
     35 H9         -1.5360    4.5370  -12.4740 h1        1 38C      0.038033
     36 H10        -1.3300    6.2550  -11.8650 h1        1 38C      0.038033
     37 H11        -1.6470    4.6440  -10.2220 ha        1 38C      0.137000
     38 H12        -1.3090    3.9480   -7.8700 ha        1 38C      0.145000
     39 H13         2.2680    5.0770   -6.1450 hn        1 38C      0.477800
     40 H14         0.0360    3.5570   -6.0470 h1        1 38C      0.048700
@<TRIPOS>BOND
     1    1    2 1   
     2    2    3 1   
     3    2    4 1   
     4    2    5 1   
     5    5    6 ar  
     6    5    8 ar  
     7    6    7 ar  
     8    6   28 1   
     9    7   10 ar  
    10    7   29 1   
    11    8    9 ar  
    12    8   30 1   
    13    9   10 ar  
    14    9   12 ar  
    15   10   11 ar  
    16   11   14 ar  
    17   12   13 ar  
    18   13   14 ar  
    19   13   18 1   
    20   14   15 1   
    21   15   16 1   
    22   15   17 1   
    23   18   19 1   
    24   18   39 1   
    25   19   20 1   
    26   19   31 1   
    27   19   40 1   
    28   20   21 ar  
    29   20   27 ar  
    30   21   22 ar  
    31   21   32 1   
    32   22   23 ar  
    33   22   33 1   
    34   23   24 1   
    35   23   26 ar  
    36   24   25 1   
    37   25   34 1   
    38   25   35 1   
    39   25   36 1   
    40   26   27 ar  
    41   26   37 1   
    42   27   38 1   
@<TRIPOS>SUBSTRUCTURE
     1 38C         1 TEMP              0 ****  ****    0 ROOT
