@<TRIPOS>MOLECULE
38D
   32    32     1     0     0
SMALL
bcc


@<TRIPOS>ATOM
      1 N12        -0.3760    0.3180   -0.2990 n7        1 38D     -0.179000
      2 C13         0.9080    0.2840   -0.4860 c1        1 38D      0.342000
      3 C15         3.3410    0.7990   -2.1170 c3        1 38D     -0.089000
      4 C17         4.2100   -1.6900   -2.6850 c2        1 38D     -0.143000
      5 C20         0.9120    0.7250   -2.7570 c2        1 38D     -0.234000
      6 C01        -4.3230   -0.0340    2.5450 c2        1 38D      0.108000
      7 C02        -4.8040   -0.2660    3.8440 c2        1 38D     -0.164000
      8 O03        -6.1550   -0.3950    4.1210 oh        1 38D     -0.260000
      9 C04        -3.9250   -0.4970    4.9080 c2        1 38D      0.193000
     10 C05        -2.4500   -0.4850    4.6960 c3        1 38D     -0.177000
     11 C06        -2.0090   -0.2180    3.3410 c1        1 38D     -0.164000
     12 O07        -4.3330   -0.7570    6.1570 oh        1 38D     -0.192000
     13 C08        -2.9420   -0.0070    2.3240 c2        1 38D     -0.280000
     14 O10        -3.0650    0.7850    0.0380 o         1 38D     -0.319000
     15 N11        -1.0760   -0.1900    0.7590 ns        1 38D     -0.235000
     16 C14         1.9880    1.3940   -2.2680 c2        1 38D     -0.029000
     17 C16         3.4240   -0.6030   -2.4530 c2        1 38D     -0.235000
     18 C19         2.7780   -1.8510   -2.7670 c1        1 38D      0.094000
     19 H1          1.9260    2.4670   -2.0010 ha        1 38D      0.165000
     20 H2          3.6890    0.9500   -1.0500 hc        1 38D      0.154500
     21 H3         -5.0390    0.1290    1.7170 ha        1 38D      0.175000
     22 H4         -6.5980    0.3970    3.7780 ho        1 38D      0.234000
     23 H5         -1.9800    0.2800    5.3890 hc        1 38D      0.199000
     24 H6         -2.0190   -1.4830    5.0210 hc        1 38D      0.199000
     25 H7         -5.3130   -0.7580    6.2000 ho        1 38D      0.276000
     26 H8         -0.5340   -0.2480    1.6260 hn        1 38D      0.286000
     27 H9          4.0480    1.3980   -2.7690 hc        1 38D      0.154500
     28 H10         0.9610   -0.3240   -3.1180 h4        1 38D      0.222000
     29 Cl1         5.7060   -2.2870   -2.7800 cl        1 38D      0.179000
     30 C09        -2.4380    0.2690    0.9740 c2        1 38D      0.365000
     31 H112       -1.0240    0.6480   -1.0480 hn        1 38D      0.310000
     32 Cl2        -0.5600    1.4830   -3.0960 cl        1 38D      0.042000
@<TRIPOS>BOND
     1    1    2 1   
     2    1   15 1   
     3    1   31 1   
     4    3   16 1   
     5    3   17 1   
     6    3   20 1   
     7    3   27 1   
     8    4   17 1   
     9    4   18 1   
    10    4   29 1   
    11    5   16 1   
    12    5   28 1   
    13    5   32 1   
    14    6    7 1   
    15    6   13 1   
    16    6   21 1   
    17    7    8 1   
    18    7    9 1   
    19    8   22 1   
    20    9   10 1   
    21    9   12 1   
    22   10   11 1   
    23   10   23 1   
    24   10   24 1   
    25   11   13 1   
    26   12   25 1   
    27   13   30 1   
    28   14   30 1   
    29   15   26 1   
    30   15   30 1   
    31   16   19 1   
    32   17   18 1   
@<TRIPOS>SUBSTRUCTURE
     1 38D         1 TEMP              0 ****  ****    0 ROOT
