@<TRIPOS>MOLECULE
38D
   32    32     1     0     0
SMALL
bcc


@<TRIPOS>ATOM
      1 N12        -2.0130    2.5540   -2.1540 n1        1 38D      0.098000
      2 C13        -0.9200    2.2140   -1.9540 c1        1 38D     -0.181000
      3 C15         0.4700    0.4600   -1.0290 c2        1 38D      0.061000
      4 C17         2.1720   -0.3520   -2.5410 c2        1 38D      0.165000
      5 C20         1.3070    1.8900   -2.9120 c2        1 38D      0.065000
      6 C01        -2.5760   -0.5250    2.1280 ca        1 38D     -0.153000
      7 C02        -3.5350    0.2590    2.7680 ca        1 38D      0.053000
      8 O03        -4.6280    0.7880    2.1290 oh        1 38D     -0.217000
      9 C04        -3.3850    0.5720    4.1470 ca        1 38D      0.099000
     10 C05        -2.2780    0.0870    4.8500 ca        1 38D     -0.195000
     11 C06        -1.3310   -0.7070    4.2040 ca        1 38D     -0.088000
     12 O07        -4.3560    1.3550    4.7080 oh        1 38D     -0.211000
     13 C08        -1.4760   -1.0100    2.8500 ca        1 38D     -0.145000
     14 O10        -0.0360   -1.5060    0.9950 o         1 38D     -0.478000
     15 N11        -0.0050   -2.9670    2.7320 n         1 38D     -0.404000
     16 C14         0.4420    1.7910   -1.6920 c3        1 38D     -0.030000
     17 C16         1.3210   -0.5310   -1.4210 c2        1 38D     -0.206000
     18 C19         2.1500    0.8650   -3.2700 c2        1 38D     -0.227000
     19 H1          0.8880    2.5230   -0.9210 hc        1 38D      0.229000
     20 H2         -0.2160    0.3020   -0.1650 ha        1 38D      0.235000
     21 H3         -2.6840   -0.7750    1.0620 ha        1 38D      0.144000
     22 H4         -4.7220    0.3360    1.2770 ho        1 38D      0.220000
     23 H5         -2.1590    0.3270    5.9180 ha        1 38D      0.154000
     24 H6         -0.4650   -1.0780    4.7730 ha        1 38D      0.145000
     25 H7         -4.1460    1.4680    5.6490 ho        1 38D      0.229000
     26 H8          0.6440   -3.5490    2.2620 hn        1 38D      0.238000
     27 H9          1.3270   -1.4900   -0.8560 ha        1 38D      0.233000
     28 H10         2.8130    0.9720   -4.1520 ha        1 38D      0.209000
     29 CL1         3.1880   -1.5730   -3.0180 cl        1 38D      0.181000
     30 C09        -0.4680   -1.8330    2.1310 c2        1 38D      0.377000
     31 H112       -0.3720   -3.2670    3.6010 hn        1 38D      0.238000
     32 CL2         1.2540    3.3020   -3.7930 cl        1 38D      0.162000
@<TRIPOS>BOND
     1    1    2 1   
     2    2   16 1   
     3    3   16 1   
     4    3   17 1   
     5    3   20 1   
     6    4   17 1   
     7    4   18 1   
     8    4   29 1   
     9    5   16 1   
    10    5   18 1   
    11    5   32 1   
    12    6    7 1   
    13    6   13 1   
    14    6   21 1   
    15    7    8 1   
    16    7    9 1   
    17    8   22 1   
    18    9   10 1   
    19    9   12 1   
    20   10   11 1   
    21   10   23 1   
    22   11   13 1   
    23   11   24 1   
    24   12   25 1   
    25   13   30 1   
    26   14   30 1   
    27   15   26 1   
    28   15   30 1   
    29   15   31 1   
    30   16   19 1   
    31   17   27 1   
    32   18   28 1   
@<TRIPOS>SUBSTRUCTURE
     1 38D         1 TEMP              0 ****  ****    0 ROOT
