@<TRIPOS>MOLECULE
38E
   28    29     1     0     0
SMALL
bcc


@<TRIPOS>ATOM
      1 F1          0.1670    0.9130    0.6020 f         1 38E     -0.129400
      2 C2          1.4450    0.5160    0.3760 ca        1 38E      0.082400
      3 C1          2.2360    0.1070    1.4720 ca        1 38E      0.075100
      4 O1          1.7800    0.0860    2.7630 oh        1 38E     -0.471100
      5 C3          1.9690    0.5130   -0.9260 ca        1 38E     -0.112000
      6 C4          3.2880    0.1040   -1.1440 ca        1 38E     -0.058800
      7 C5          4.0880   -0.2910   -0.0590 ca        1 38E     -0.112000
      8 C           3.5740   -0.2990    1.2440 ca        1 38E      0.082400
      9 F           4.3480   -0.6910    2.2810 f         1 38E     -0.129400
     10 C6          3.8900    0.0890   -2.4640 ce        1 38E     -0.004200
     11 C7          3.2710   -0.0960   -3.6450 cd        1 38E      0.004400
     12 C9          4.0310   -0.1070   -4.9630 c         1 38E      0.676700
     13 O           5.2330    0.0540   -5.1840 o         1 38E     -0.581500
     14 N1          3.0290   -0.3520   -5.9390 n         1 38E     -0.441300
     15 C10         3.2240   -0.4710   -7.3410 c3        1 38E      0.096300
     16 C8          1.7850   -0.4760   -5.2510 cc        1 38E      0.463900
     17 N           1.8900   -0.3300   -3.9300 nd        1 38E     -0.602300
     18 C11         0.5230   -0.7440   -5.9960 c3        1 38E     -0.128400
     19 H1          0.8550    0.3830    2.7570 ho        1 38E      0.435000
     20 H2          1.3250    0.8420   -1.7560 ha        1 38E      0.168500
     21 H3          5.1310   -0.6060   -0.2220 ha        1 38E      0.168500
     22 H4          4.9910    0.2250   -2.4870 ha        1 38E      0.154000
     23 H5          2.6180    0.3030   -7.8860 h1        1 38E      0.051033
     24 H6          4.3130   -0.3190   -7.5710 h1        1 38E      0.051033
     25 H7          2.9080   -1.4890   -7.6960 h1        1 38E      0.051033
     26 H8          0.6140   -1.7070   -6.5580 hc        1 38E      0.069700
     27 H9         -0.3440   -0.8140   -5.2930 hc        1 38E      0.069700
     28 H10         0.3340    0.0840   -6.7250 hc        1 38E      0.069700
@<TRIPOS>BOND
     1    1    2 1   
     2    2    3 ar  
     3    2    5 ar  
     4    3    4 1   
     5    3    8 ar  
     6    4   19 1   
     7    5    6 ar  
     8    5   20 1   
     9    6    7 ar  
    10    6   10 1   
    11    7    8 ar  
    12    7   21 1   
    13    8    9 1   
    14   10   11 2   
    15   10   22 1   
    16   11   12 1   
    17   11   17 1   
    18   12   13 2   
    19   12   14 1   
    20   14   15 1   
    21   14   16 1   
    22   15   23 1   
    23   15   24 1   
    24   15   25 1   
    25   16   17 2   
    26   16   18 1   
    27   18   26 1   
    28   18   27 1   
    29   18   28 1   
@<TRIPOS>SUBSTRUCTURE
     1 38E         1 TEMP              0 ****  ****    0 ROOT
