@<TRIPOS>MOLECULE
38E
   28    29     1     0     0
SMALL
bcc


@<TRIPOS>ATOM
      1 F1          0.1420    0.9080    0.5870 f         1 38E     -0.129400
      2 C2          1.4260    0.5230    0.3670 ca        1 38E      0.082400
      3 C1          2.2170    0.1310    1.4680 ca        1 38E      0.075100
      4 O1          1.7560    0.1120    2.7580 oh        1 38E     -0.471100
      5 C3          1.9540    0.5180   -0.9320 ca        1 38E     -0.112000
      6 C4          3.2790    0.1220   -1.1430 ca        1 38E     -0.058800
      7 C5          4.0790   -0.2560   -0.0530 ca        1 38E     -0.112000
      8 C           3.5600   -0.2630    1.2480 ca        1 38E      0.082400
      9 F           4.3350   -0.6390    2.2910 f         1 38E     -0.129400
     10 C6          3.8860    0.1050   -2.4610 ce        1 38E     -0.004200
     11 C7          3.2730   -0.0930   -3.6430 cd        1 38E      0.004400
     12 C9          4.0380   -0.1040   -4.9580 c         1 38E      0.676700
     13 O           5.2390    0.0680   -5.1760 o         1 38E     -0.581500
     14 N1          3.0420   -0.3660   -5.9360 n         1 38E     -0.441300
     15 C10         3.2440   -0.4910   -7.3370 c3        1 38E      0.096300
     16 C8          1.7970   -0.5000   -5.2520 cc        1 38E      0.463900
     17 N           1.8960   -0.3440   -3.9320 nd        1 38E     -0.602300
     18 C11         0.5410   -0.7850   -6.0000 c3        1 38E     -0.128400
     19 H1          0.8280    0.3980    2.7470 ho        1 38E      0.435000
     20 H2          1.3090    0.8340   -1.7670 ha        1 38E      0.168500
     21 H3          5.1260   -0.5610   -0.2100 ha        1 38E      0.168500
     22 H4          4.9840    0.2540   -2.4810 ha        1 38E      0.154000
     23 H5          2.6330    0.2750   -7.8880 h1        1 38E      0.051033
     24 H6          4.3320   -0.3310   -7.5640 h1        1 38E      0.051033
     25 H7          2.9370   -1.5140   -7.6880 h1        1 38E      0.051033
     26 H8          0.6440   -1.7520   -6.5530 hc        1 38E      0.070033
     27 H9         -0.3280   -0.8590   -5.3000 hc        1 38E      0.070033
     28 H10         0.3460    0.0340   -6.7370 hc        1 38E      0.070033
@<TRIPOS>BOND
     1    1    2 1   
     2    2    3 ar  
     3    2    5 ar  
     4    3    4 1   
     5    3    8 ar  
     6    4   19 1   
     7    5    6 ar  
     8    5   20 1   
     9    6    7 ar  
    10    6   10 1   
    11    7    8 ar  
    12    7   21 1   
    13    8    9 1   
    14   10   11 2   
    15   10   22 1   
    16   11   12 1   
    17   11   17 1   
    18   12   13 2   
    19   12   14 1   
    20   14   15 1   
    21   14   16 1   
    22   15   23 1   
    23   15   24 1   
    24   15   25 1   
    25   16   17 2   
    26   16   18 1   
    27   18   26 1   
    28   18   27 1   
    29   18   28 1   
@<TRIPOS>SUBSTRUCTURE
     1 38E         1 TEMP              0 ****  ****    0 ROOT
