@<TRIPOS>MOLECULE
38E
   28    29     1     0     0
SMALL
bcc


@<TRIPOS>ATOM
      1 F1          0.1590    0.9040    0.6000 f         1 38E     -0.129400
      2 C2          1.4410    0.5190    0.3740 ca        1 38E      0.082400
      3 C1          2.2370    0.1230    1.4710 ca        1 38E      0.075100
      4 O1          1.7820    0.1020    2.7620 oh        1 38E     -0.471100
      5 C3          1.9640    0.5160   -0.9280 ca        1 38E     -0.112000
      6 C4          3.2870    0.1190   -1.1460 ca        1 38E     -0.058800
      7 C5          4.0920   -0.2630   -0.0600 ca        1 38E     -0.112000
      8 C           3.5790   -0.2720    1.2440 ca        1 38E      0.082400
      9 F           4.3570   -0.6510    2.2820 f         1 38E     -0.129400
     10 C6          3.8880    0.1040   -2.4660 ce        1 38E     -0.004200
     11 C7          3.2700   -0.0920   -3.6460 cd        1 38E      0.004400
     12 C9          4.0290   -0.1010   -4.9640 c         1 38E      0.676700
     13 O           5.2290    0.0710   -5.1870 o         1 38E     -0.581500
     14 N1          3.0280   -0.3610   -5.9380 n         1 38E     -0.441300
     15 C10         3.2230   -0.4840   -7.3400 c3        1 38E      0.096300
     16 C8          1.7870   -0.4950   -5.2490 cc        1 38E      0.463900
     17 N           1.8910   -0.3420   -3.9290 nd        1 38E     -0.602300
     18 C11         0.5260   -0.7780   -5.9920 c3        1 38E     -0.128400
     19 H1          0.8540    0.3900    2.7560 ho        1 38E      0.435000
     20 H2          1.3160    0.8340   -1.7600 ha        1 38E      0.168500
     21 H3          5.1370   -0.5690   -0.2220 ha        1 38E      0.168500
     22 H4          4.9870    0.2520   -2.4910 ha        1 38E      0.154000
     23 H5          2.9160   -1.5060   -7.6910 h1        1 38E      0.051033
     24 H6          2.6100    0.2820   -7.8880 h1        1 38E      0.051033
     25 H7          4.3110   -0.3240   -7.5720 h1        1 38E      0.051033
     26 H8          0.3290    0.0430   -6.7250 hc        1 38E      0.069700
     27 H9          0.6270   -1.7440   -6.5490 hc        1 38E      0.069700
     28 H10        -0.3390   -0.8540   -5.2880 hc        1 38E      0.069700
@<TRIPOS>BOND
     1    1    2 1   
     2    2    3 ar  
     3    2    5 ar  
     4    3    4 1   
     5    3    8 ar  
     6    4   19 1   
     7    5    6 ar  
     8    5   20 1   
     9    6    7 ar  
    10    6   10 1   
    11    7    8 ar  
    12    7   21 1   
    13    8    9 1   
    14   10   11 2   
    15   10   22 1   
    16   11   12 1   
    17   11   17 1   
    18   12   13 2   
    19   12   14 1   
    20   14   15 1   
    21   14   16 1   
    22   15   23 1   
    23   15   24 1   
    24   15   25 1   
    25   16   17 2   
    26   16   18 1   
    27   18   26 1   
    28   18   27 1   
    29   18   28 1   
@<TRIPOS>SUBSTRUCTURE
     1 38E         1 TEMP              0 ****  ****    0 ROOT
