@<TRIPOS>MOLECULE
38F
   49    51     1     0     0
SMALL
bcc


@<TRIPOS>ATOM
      1 CAO         0.1200   -1.0710   -0.2640 c3        1 38F     -0.046600
      2 CAP         1.3300   -0.2130   -0.1290 ca        1 38F     -0.119800
      3 CAS         1.9420    0.2250    1.0340 ca        1 38F     -0.094000
      4 CAT         3.0930    1.0180    0.9260 ca        1 38F     -0.107000
      5 CAU         3.6110    1.3570   -0.3210 ca        1 38F     -0.107000
      6 CAV         2.9940    0.9130   -1.5000 ca        1 38F     -0.094000
      7 CAQ         1.8560    0.1310   -1.3940 ca        1 38F     -0.119800
      8 CAR         1.0460   -0.4670   -2.4920 c3        1 38F     -0.046600
      9 CAN        -0.2040   -1.0660   -1.7840 c3        1 38F      0.120500
     10 NAM        -1.4390   -0.2660   -2.0930 ny        1 38F     -0.756000
     11 CAL        -2.6950   -1.0060   -1.7890 c3        1 38F      0.097800
     12 CAI        -3.9430   -0.1300   -2.0050 c3        1 38F      0.122100
     13 OAH        -3.7110    1.0830   -1.3080 oh        1 38F     -0.634800
     14 CAJ        -5.1720   -0.8740   -1.4690 c3        1 38F      0.100400
     15 OAK        -6.2520    0.0330   -1.6810 os        1 38F     -0.351900
     16 CAF        -7.5240   -0.5300   -1.5930 ca        1 38F      0.091100
     17 CAG        -8.5350    0.1940   -2.2410 ca        1 38F     -0.139000
     18 CAB        -9.8550   -0.2550   -2.1630 ca        1 38F     -0.041300
     19 CAA       -10.9330    0.5050   -2.8370 c3        1 38F     -0.061800
     20 CAC       -10.1560   -1.4300   -1.4470 ca        1 38F     -0.082300
     21 CAW       -11.5530   -1.9140   -1.3640 c3        1 38F     -0.057800
     22 CAD        -9.1290   -2.1350   -0.8130 ca        1 38F     -0.094000
     23 CAE        -7.8080   -1.6950   -0.8760 ca        1 38F     -0.189000
     24 H1          0.3460   -2.1240    0.0500 hc        1 38F      0.084950
     25 H2         -0.7250   -0.7010    0.3710 hc        1 38F      0.084950
     26 H3          1.5410   -0.0420    2.0230 ha        1 38F      0.149500
     27 H4          3.5920    1.3730    1.8420 ha        1 38F      0.155000
     28 H5          4.5180    1.9790   -0.3890 ha        1 38F      0.155000
     29 H6          3.4120    1.1810   -2.4810 ha        1 38F      0.149500
     30 H7          1.6080   -1.3020   -2.9870 hc        1 38F      0.084950
     31 H8          0.7950    0.2860   -3.2820 hc        1 38F      0.084950
     32 H9         -0.3960   -2.1130   -2.1520 hx        1 38F      0.103700
     33 H10        -1.4330    0.6040   -1.5360 hn        1 38F      0.461800
     34 H12        -2.6470   -1.3380   -0.7120 hx        1 38F      0.109200
     35 H13        -2.7570   -1.9120   -2.4560 hx        1 38F      0.109200
     36 H14        -4.0860    0.1000   -3.0990 h1        1 38F      0.075700
     37 H15        -4.5680    1.5180   -1.1750 ho        1 38F      0.470000
     38 H16        -5.0680   -1.0730   -0.3690 h1        1 38F      0.063200
     39 H17        -5.3330   -1.8320   -2.0260 h1        1 38F      0.063200
     40 H18        -8.2820    1.1100   -2.7940 ha        1 38F      0.150000
     41 H19       -10.5330    1.4030   -3.3670 hc        1 38F      0.054367
     42 H20       -11.6900    0.8460   -2.0850 hc        1 38F      0.054367
     43 H21       -11.4560   -0.1450   -3.5830 hc        1 38F      0.054367
     44 H22       -11.6270   -2.8500   -0.7580 hc        1 38F      0.052367
     45 H23       -11.9510   -2.1240   -2.3890 hc        1 38F      0.052367
     46 H24       -12.2050   -1.1350   -0.8930 hc        1 38F      0.052367
     47 H25        -9.3640   -3.0520   -0.2500 ha        1 38F      0.143000
     48 H26        -7.0180   -2.2570   -0.3620 ha        1 38F      0.130000
     49 HAM2       -1.4340   -0.0010   -3.0840 hn        1 38F      0.461800
@<TRIPOS>BOND
     1    1    2 1   
     2    1    9 1   
     3    1   24 1   
     4    1   25 1   
     5    2    3 ar  
     6    2    7 ar  
     7    3    4 ar  
     8    3   26 1   
     9    4    5 ar  
    10    4   27 1   
    11    5    6 ar  
    12    5   28 1   
    13    6    7 ar  
    14    6   29 1   
    15    7    8 1   
    16    8    9 1   
    17    8   30 1   
    18    8   31 1   
    19    9   10 1   
    20    9   32 1   
    21   10   11 1   
    22   10   33 1   
    23   10   49 1   
    24   11   12 1   
    25   11   34 1   
    26   11   35 1   
    27   12   13 1   
    28   12   14 1   
    29   12   36 1   
    30   13   37 1   
    31   14   15 1   
    32   14   38 1   
    33   14   39 1   
    34   15   16 1   
    35   16   17 ar  
    36   16   23 ar  
    37   17   18 ar  
    38   17   40 1   
    39   18   19 1   
    40   18   20 ar  
    41   19   41 1   
    42   19   42 1   
    43   19   43 1   
    44   20   21 1   
    45   20   22 ar  
    46   21   44 1   
    47   21   45 1   
    48   21   46 1   
    49   22   23 ar  
    50   22   47 1   
    51   23   48 1   
@<TRIPOS>SUBSTRUCTURE
     1 38F         1 TEMP              0 ****  ****    0 ROOT
