@<TRIPOS>MOLECULE
38F
   49    51     1     0     0
SMALL
bcc


@<TRIPOS>ATOM
      1 CAO         0.1180   -1.0650   -0.2580 c3        1 38F     -0.046600
      2 CAP         1.3280   -0.2050   -0.1250 ca        1 38F     -0.119800
      3 CAS         1.9370    0.2400    1.0370 ca        1 38F     -0.094000
      4 CAT         3.0870    1.0330    0.9270 ca        1 38F     -0.107000
      5 CAU         3.6080    1.3650   -0.3220 ca        1 38F     -0.107000
      6 CAV         2.9930    0.9150   -1.4990 ca        1 38F     -0.094000
      7 CAQ         1.8550    0.1320   -1.3910 ca        1 38F     -0.119800
      8 CAR         1.0480   -0.4720   -2.4870 c3        1 38F     -0.046600
      9 CAN        -0.2030   -1.0680   -1.7790 c3        1 38F      0.120500
     10 NAM        -1.4370   -0.2690   -2.0940 n4        1 38F     -0.756000
     11 CAL        -2.6940   -1.0080   -1.7880 c3        1 38F      0.097800
     12 CAI        -3.9420   -0.1330   -2.0100 c3        1 38F      0.122100
     13 OAH        -3.7100    1.0830   -1.3190 oh        1 38F     -0.634800
     14 CAJ        -5.1720   -0.8740   -1.4720 c3        1 38F      0.100400
     15 OAK        -6.2510    0.0320   -1.6890 os        1 38F     -0.351900
     16 CAF        -7.5240   -0.5290   -1.5970 ca        1 38F      0.091100
     17 CAG        -8.5340    0.1940   -2.2480 ca        1 38F     -0.139000
     18 CAB        -9.8540   -0.2540   -2.1670 ca        1 38F     -0.041300
     19 CAA       -10.9330    0.5050   -2.8420 c3        1 38F     -0.061800
     20 CAC       -10.1560   -1.4260   -1.4460 ca        1 38F     -0.082300
     21 CAW       -11.5530   -1.9090   -1.3600 c3        1 38F     -0.057800
     22 CAD        -9.1290   -2.1300   -0.8100 ca        1 38F     -0.094000
     23 CAE        -7.8080   -1.6910   -0.8760 ca        1 38F     -0.190000
     24 H1         -0.7280   -0.6920    0.3730 hc        1 38F      0.084950
     25 H2          0.3450   -2.1160    0.0620 hc        1 38F      0.084950
     26 H3          1.5340   -0.0220    2.0270 ha        1 38F      0.149500
     27 H4          3.5840    1.3940    1.8420 ha        1 38F      0.155000
     28 H5          4.5150    1.9880   -0.3910 ha        1 38F      0.155000
     29 H6          3.4130    1.1770   -2.4810 ha        1 38F      0.149500
     30 H7          1.6120   -1.3100   -2.9770 hc        1 38F      0.084950
     31 H8          0.7980    0.2760   -3.2820 hc        1 38F      0.084950
     32 H9         -0.3940   -2.1170   -2.1410 hx        1 38F      0.103700
     33 H10        -1.4320    0.6030   -1.5410 hn        1 38F      0.461800
     34 H12        -2.7550   -1.9170   -2.4500 hx        1 38F      0.109200
     35 H13        -2.6470   -1.3350   -0.7100 hx        1 38F      0.109200
     36 H14        -4.0830    0.0920   -3.1060 h1        1 38F      0.075700
     37 H15        -4.5670    1.5190   -1.1890 ho        1 38F      0.470000
     38 H16        -5.0690   -1.0680   -0.3710 h1        1 38F      0.063200
     39 H17        -5.3320   -1.8340   -2.0250 h1        1 38F      0.063200
     40 H18        -8.2810    1.1070   -2.8040 ha        1 38F      0.150000
     41 H19       -11.6880    0.8500   -2.0900 hc        1 38F      0.054367
     42 H20       -10.5320    1.4000   -3.3770 hc        1 38F      0.054367
     43 H21       -11.4570   -0.1480   -3.5850 hc        1 38F      0.054367
     44 H22       -12.2040   -1.1270   -0.8920 hc        1 38F      0.052367
     45 H23       -11.6270   -2.8420   -0.7500 hc        1 38F      0.052367
     46 H24       -11.9530   -2.1230   -2.3840 hc        1 38F      0.052367
     47 H25        -9.3650   -3.0450   -0.2440 ha        1 38F      0.143000
     48 H26        -7.0170   -2.2520   -0.3610 ha        1 38F      0.130000
     49 HAM2       -1.4310   -0.0090   -3.0860 hn        1 38F      0.461800
@<TRIPOS>BOND
     1    1    2 1   
     2    1    9 1   
     3    1   24 1   
     4    1   25 1   
     5    2    3 ar  
     6    2    7 ar  
     7    3    4 ar  
     8    3   26 1   
     9    4    5 ar  
    10    4   27 1   
    11    5    6 ar  
    12    5   28 1   
    13    6    7 ar  
    14    6   29 1   
    15    7    8 1   
    16    8    9 1   
    17    8   30 1   
    18    8   31 1   
    19    9   10 1   
    20    9   32 1   
    21   10   11 1   
    22   10   33 1   
    23   10   49 1   
    24   11   12 1   
    25   11   34 1   
    26   11   35 1   
    27   12   13 1   
    28   12   14 1   
    29   12   36 1   
    30   13   37 1   
    31   14   15 1   
    32   14   38 1   
    33   14   39 1   
    34   15   16 1   
    35   16   17 ar  
    36   16   23 ar  
    37   17   18 ar  
    38   17   40 1   
    39   18   19 1   
    40   18   20 ar  
    41   19   41 1   
    42   19   42 1   
    43   19   43 1   
    44   20   21 1   
    45   20   22 ar  
    46   21   44 1   
    47   21   45 1   
    48   21   46 1   
    49   22   23 ar  
    50   22   47 1   
    51   23   48 1   
@<TRIPOS>SUBSTRUCTURE
     1 38F         1 TEMP              0 ****  ****    0 ROOT
