@<TRIPOS>MOLECULE
38F
   49    51     1     0     0
SMALL
bcc


@<TRIPOS>ATOM
      1 CAO         0.1170   -1.0720   -0.2540 c3        1 38F     -0.046600
      2 CAP         1.3300   -0.2160   -0.1260 ca        1 38F     -0.119800
      3 CAS         1.9420    0.2310    1.0330 ca        1 38F     -0.094000
      4 CAT         3.0960    1.0200    0.9170 ca        1 38F     -0.107000
      5 CAU         3.6150    1.3460   -0.3330 ca        1 38F     -0.107000
      6 CAV         2.9970    0.8930   -1.5080 ca        1 38F     -0.094000
      7 CAQ         1.8570    0.1140   -1.3950 ca        1 38F     -0.119800
      8 CAR         1.0450   -0.4910   -2.4870 c3        1 38F     -0.046600
      9 CAN        -0.2060   -1.0800   -1.7750 c3        1 38F      0.120500
     10 NAM        -1.4380   -0.2790   -2.0910 n4        1 38F     -0.756000
     11 CAL        -2.6970   -1.0130   -1.7810 c3        1 38F      0.097800
     12 CAI        -3.9420   -0.1340   -2.0040 c3        1 38F      0.122100
     13 OAH        -3.7060    1.0840   -1.3190 oh        1 38F     -0.634800
     14 CAJ        -5.1740   -0.8700   -1.4620 c3        1 38F      0.100400
     15 OAK        -6.2510    0.0380   -1.6820 os        1 38F     -0.351900
     16 CAF        -7.5250   -0.5200   -1.5930 ca        1 38F      0.091100
     17 CAG        -8.5320    0.1990   -2.2520 ca        1 38F     -0.139000
     18 CAB        -9.8530   -0.2470   -2.1730 ca        1 38F     -0.041300
     19 CAA       -10.9280    0.5090   -2.8570 c3        1 38F     -0.061800
     20 CAC       -10.1590   -1.4140   -1.4450 ca        1 38F     -0.082300
     21 CAW       -11.5570   -1.8940   -1.3610 c3        1 38F     -0.057800
     22 CAD        -9.1350   -2.1140   -0.8010 ca        1 38F     -0.094000
     23 CAE        -7.8130   -1.6770   -0.8650 ca        1 38F     -0.189000
     24 H1         -0.7260   -0.6940    0.3770 hc        1 38F      0.084950
     25 H2          0.3410   -2.1230    0.0690 hc        1 38F      0.084950
     26 H3          1.5410   -0.0250    2.0240 ha        1 38F      0.149500
     27 H4          3.5950    1.3820    1.8300 ha        1 38F      0.155000
     28 H5          4.5240    1.9640   -0.4060 ha        1 38F      0.155000
     29 H6          3.4160    1.1500   -2.4910 ha        1 38F      0.149500
     30 H7          1.6060   -1.3330   -2.9750 hc        1 38F      0.084950
     31 H8          0.7970    0.2550   -3.2840 hc        1 38F      0.084950
     32 H9         -0.4010   -2.1300   -2.1330 hx        1 38F      0.103700
     33 H10        -1.4300    0.5960   -1.5420 hn        1 38F      0.461800
     34 H12        -2.7620   -1.9240   -2.4390 hx        1 38F      0.109200
     35 H13        -2.6500   -1.3350   -0.7010 hx        1 38F      0.109200
     36 H14        -4.0840    0.0860   -3.1010 h1        1 38F      0.075700
     37 H15        -4.5620    1.5230   -1.1900 ho        1 38F      0.470000
     38 H16        -5.3370   -1.8320   -2.0100 h1        1 38F      0.063200
     39 H17        -5.0710   -1.0580   -0.3600 h1        1 38F      0.063200
     40 H18        -8.2750    1.1090   -2.8130 ha        1 38F      0.150000
     41 H19       -11.4500   -0.1490   -3.5970 hc        1 38F      0.054367
     42 H20       -11.6850    0.8600   -2.1110 hc        1 38F      0.054367
     43 H21       -10.5240    1.4000   -3.3970 hc        1 38F      0.054367
     44 H22       -11.9520   -2.1150   -2.3850 hc        1 38F      0.052367
     45 H23       -11.6340   -2.8220   -0.7440 hc        1 38F      0.052367
     46 H24       -12.2090   -1.1080   -0.9010 hc        1 38F      0.052367
     47 H25        -9.3740   -3.0250   -0.2290 ha        1 38F      0.143000
     48 H26        -7.0250   -2.2360   -0.3420 ha        1 38F      0.130000
     49 HAM2       -1.4330   -0.0230   -3.0840 hn        1 38F      0.461800
@<TRIPOS>BOND
     1    1    2 1   
     2    1    9 1   
     3    1   24 1   
     4    1   25 1   
     5    2    3 ar  
     6    2    7 ar  
     7    3    4 ar  
     8    3   26 1   
     9    4    5 ar  
    10    4   27 1   
    11    5    6 ar  
    12    5   28 1   
    13    6    7 ar  
    14    6   29 1   
    15    7    8 1   
    16    8    9 1   
    17    8   30 1   
    18    8   31 1   
    19    9   10 1   
    20    9   32 1   
    21   10   11 1   
    22   10   33 1   
    23   10   49 1   
    24   11   12 1   
    25   11   34 1   
    26   11   35 1   
    27   12   13 1   
    28   12   14 1   
    29   12   36 1   
    30   13   37 1   
    31   14   15 1   
    32   14   38 1   
    33   14   39 1   
    34   15   16 1   
    35   16   17 ar  
    36   16   23 ar  
    37   17   18 ar  
    38   17   40 1   
    39   18   19 1   
    40   18   20 ar  
    41   19   41 1   
    42   19   42 1   
    43   19   43 1   
    44   20   21 1   
    45   20   22 ar  
    46   21   44 1   
    47   21   45 1   
    48   21   46 1   
    49   22   23 ar  
    50   22   47 1   
    51   23   48 1   
@<TRIPOS>SUBSTRUCTURE
     1 38F         1 TEMP              0 ****  ****    0 ROOT
