@<TRIPOS>MOLECULE
38G
   61    64     1     0     0
SMALL
bcc


@<TRIPOS>ATOM
      1 CBF         1.5640    2.3150    0.2940 c3        1 38G      0.110700
      2 OBE         1.9290    0.9580    0.0570 os        1 38G     -0.300900
      3 CAZ         2.0710    0.1750    1.1850 ca        1 38G      0.090100
      4 CAY         1.3700    0.3790    2.3720 ca        1 38G     -0.131000
      5 CBA         2.9540   -0.9320    1.0660 ca        1 38G      0.146100
      6 OBD         3.6040   -1.0780   -0.1280 oh        1 38G     -0.458100
      7 CBB         3.1140   -1.8100    2.1440 ca        1 38G     -0.198000
      8 CBC         2.4160   -1.5930    3.3300 ca        1 38G     -0.085000
      9 CAX         1.5440   -0.5060    3.4470 ca        1 38G     -0.191500
     10 CAV         0.8180   -0.2960    4.7080 cc        1 38G      0.477800
     11 CAU         1.5590   -0.4130    5.9490 cc        1 38G     -0.212300
     12 CAT         0.9190   -0.2280    7.1420 cd        1 38G     -0.042000
     13 NAW        -0.4940   -0.0090    4.6610 nd        1 38G     -0.503800
     14 NAS        -1.1140    0.1780    5.8180 na        1 38G      0.205200
     15 CAR        -0.4830    0.0740    7.1120 cd        1 38G     -0.044300
     16 NAQ        -1.3920    0.2900    8.1160 nc        1 38G     -0.244600
     17 CAP        -2.5890    0.5170    7.4940 cc        1 38G      0.051600
     18 CAG        -2.4770    0.4530    6.0690 cd        1 38G     -0.170300
     19 CAB        -3.5170    0.6300    5.0930 ca        1 38G      0.055200
     20 CAA        -4.8380    0.3110    5.4630 ca        1 38G     -0.092000
     21 CAC        -3.2770    1.1220    3.7980 ca        1 38G     -0.053000
     22 CAD        -4.3280    1.2800    2.8930 ca        1 38G     -0.098000
     23 CAE        -5.6320    0.9640    3.2600 ca        1 38G     -0.145000
     24 CAF        -5.8850    0.4850    4.5540 ca        1 38G     -0.245300
     25 CAH        -7.2730    0.1730    4.9880 c3        1 38G      0.450600
     26 OAI        -8.2540    1.1040    4.6630 oh        1 38G     -0.575800
     27 NAJ        -7.7040   -1.1660    4.2660 n4        1 38G     -0.823000
     28 CAK        -9.0410   -1.6050    4.7200 c3        1 38G      0.076800
     29 CAL        -9.5900   -2.7980    3.9120 c3        1 38G      0.075800
     30 NAM       -10.9350   -3.2550    4.3840 n4        1 38G     -0.674400
     31 CAO       -12.0180   -2.3210    3.9630 c3        1 38G      0.077100
     32 CAN       -11.2160   -4.6330    3.8780 c3        1 38G      0.077100
     33 H1          0.4820    2.3780    0.5690 h1        1 38G      0.047033
     34 H2          1.7480    2.8090   -0.6940 h1        1 38G      0.047033
     35 H3          2.1970    2.7720    1.0920 h1        1 38G      0.047033
     36 H4          0.6920    1.2400    2.4660 ha        1 38G      0.145000
     37 H5          4.1880   -1.8500   -0.0620 ho        1 38G      0.429000
     38 H6          3.7990   -2.6660    2.0570 ha        1 38G      0.153000
     39 H7          2.5520   -2.2890    4.1720 ha        1 38G      0.143000
     40 H8          2.6350   -0.6390    5.8950 ha        1 38G      0.180000
     41 H9          1.4220   -0.2950    8.1200 ha        1 38G      0.190000
     42 H10        -3.4910    0.7430    8.0670 h4        1 38G      0.182000
     43 H11        -5.0350   -0.0590    6.4820 ha        1 38G      0.148000
     44 H12        -2.2560    1.4010    3.4840 ha        1 38G      0.188000
     45 H13        -4.1210    1.6690    1.8820 ha        1 38G      0.170000
     46 H14        -6.4520    1.1080    2.5410 ha        1 38G      0.125000
     47 H15        -7.3730   -0.0500    6.0950 hx        1 38G      0.133700
     48 H16        -7.8880    1.7870    4.0720 ho        1 38G      0.478000
     49 H17        -6.9890   -1.8690    4.4760 hn        1 38G      0.455300
     50 H19        -9.7330   -0.7120    4.6290 hx        1 38G      0.128200
     51 H20        -8.9610   -1.8770    5.8140 hx        1 38G      0.128200
     52 H21        -9.6850   -2.5250    2.8200 hx        1 38G      0.121700
     53 H22        -8.8810   -3.6760    3.9970 hx        1 38G      0.121700
     54 H24       -13.0000   -2.6910    4.3730 hx        1 38G      0.120033
     55 H25       -11.8130   -1.2940    4.3650 hx        1 38G      0.120033
     56 H26       -12.0780   -2.2890    2.8410 hx        1 38G      0.120033
     57 H27       -10.4460   -5.3470    4.2780 hx        1 38G      0.120033
     58 H28       -11.1940   -4.6350    2.7550 hx        1 38G      0.120033
     59 H29       -12.2370   -4.9480    4.2330 hx        1 38G      0.120033
     60 HAJ2       -7.7050   -0.9960    3.2560 hn        1 38G      0.455300
     61 HAM1      -10.9250   -3.2910    5.4150 hn        1 38G      0.459800
@<TRIPOS>BOND
     1    1    2 1   
     2    1   33 1   
     3    1   34 1   
     4    1   35 1   
     5    2    3 1   
     6    3    4 ar  
     7    3    5 ar  
     8    4    9 ar  
     9    4   36 1   
    10    5    6 1   
    11    5    7 ar  
    12    6   37 1   
    13    7    8 ar  
    14    7   38 1   
    15    8    9 ar  
    16    8   39 1   
    17    9   10 1   
    18   10   11 1   
    19   10   13 2   
    20   11   12 2   
    21   11   40 1   
    22   12   15 1   
    23   12   41 1   
    24   13   14 1   
    25   14   15 1   
    26   14   18 1   
    27   15   16 2   
    28   16   17 1   
    29   17   18 2   
    30   17   42 1   
    31   18   19 1   
    32   19   20 ar  
    33   19   21 ar  
    34   20   24 ar  
    35   20   43 1   
    36   21   22 ar  
    37   21   44 1   
    38   22   23 ar  
    39   22   45 1   
    40   23   24 ar  
    41   23   46 1   
    42   24   25 1   
    43   25   26 1   
    44   25   27 1   
    45   25   47 1   
    46   26   48 1   
    47   27   28 1   
    48   27   49 1   
    49   27   60 1   
    50   28   29 1   
    51   28   50 1   
    52   28   51 1   
    53   29   30 1   
    54   29   52 1   
    55   29   53 1   
    56   30   31 1   
    57   30   32 1   
    58   30   61 1   
    59   31   54 1   
    60   31   55 1   
    61   31   56 1   
    62   32   57 1   
    63   32   58 1   
    64   32   59 1   
@<TRIPOS>SUBSTRUCTURE
     1 38G         1 TEMP              0 ****  ****    0 ROOT
