@<TRIPOS>MOLECULE
38G
   61    64     1     0     0
SMALL
bcc


@<TRIPOS>ATOM
      1 CBF         1.5110   -1.2730   -1.1380 c3        1 38G      0.120700
      2 OBE         0.7780   -0.8770    0.0230 os        1 38G     -0.334900
      3 CAZ         1.5140   -0.4410    1.1040 ca        1 38G      0.098100
      4 CAY         0.8700   -0.5700    2.3430 ca        1 38G     -0.095000
      5 CBA         2.7910    0.1630    1.0440 ca        1 38G      0.104100
      6 OBD         3.3940    0.2780   -0.1830 oh        1 38G     -0.492100
      7 CBB         3.4030    0.6190    2.2220 ca        1 38G     -0.182000
      8 CBC         2.7560    0.4880    3.4450 ca        1 38G     -0.090000
      9 CAX         1.4880   -0.1040    3.5090 ca        1 38G     -0.187500
     10 CAV         0.8160   -0.2370    4.8100 cc        1 38G      0.476800
     11 CAU         1.6030   -0.6720    5.9480 cc        1 38G     -0.213300
     12 CAT         1.0090   -0.8140    7.1700 cd        1 38G     -0.042000
     13 NAW        -0.4950    0.0500    4.8930 nd        1 38G     -0.501800
     14 NAS        -1.0680   -0.0770    6.0800 na        1 38G      0.204200
     15 CAR        -0.3910   -0.5170    7.2760 cd        1 38G     -0.044300
     16 NAQ        -1.2590   -0.5710    8.3360 nc        1 38G     -0.244600
     17 CAP        -2.4750   -0.1830    7.8430 cc        1 38G      0.051600
     18 CAG        -2.4160    0.1320    6.4500 cd        1 38G     -0.169300
     19 CAB        -3.4810    0.5830    5.5960 ca        1 38G      0.052200
     20 CAA        -4.7940    0.1720    5.8930 ca        1 38G     -0.091000
     21 CAC        -3.2680    1.4290    4.4930 ca        1 38G     -0.050000
     22 CAD        -4.3410    1.8450    3.7020 ca        1 38G     -0.099000
     23 CAE        -5.6380    1.4380    3.9970 ca        1 38G     -0.144000
     24 CAF        -5.8620    0.6040    5.1020 ca        1 38G     -0.247300
     25 CAH        -7.2410    0.1810    5.4640 c3        1 38G      0.450600
     26 OAI        -8.2230    1.1660    5.4480 oh        1 38G     -0.576800
     27 NAJ        -7.7000   -0.8920    4.3980 ny        1 38G     -0.823000
     28 CAK        -9.0280   -1.4440    4.7390 c3        1 38G      0.076800
     29 CAL        -9.6060   -2.3530    3.6350 c3        1 38G      0.075800
     30 NAM       -10.9410   -2.9280    3.9900 nx        1 38G     -0.674400
     31 CAO       -12.0280   -1.9130    3.8860 c3        1 38G      0.077100
     32 CAN       -11.2440   -4.1000    3.1150 c3        1 38G      0.077100
     33 H1          1.8450   -0.3650   -1.6980 h1        1 38G      0.054700
     34 H2          2.3870   -1.9070   -0.8650 h1        1 38G      0.054700
     35 H3          0.7610   -1.8550   -1.7300 h1        1 38G      0.054700
     36 H4         -0.1230   -1.0420    2.3730 ha        1 38G      0.152000
     37 H5          4.2670    0.6830   -0.0580 ho        1 38G      0.435000
     38 H6          4.3980    1.0880    2.1720 ha        1 38G      0.153000
     39 H7          3.2410    0.8620    4.3590 ha        1 38G      0.146000
     40 H8          2.6710   -0.8890    5.7920 ha        1 38G      0.178000
     41 H9          1.5460   -1.1460    8.0730 ha        1 38G      0.190000
     42 H10        -3.3530   -0.1130    8.4900 h4        1 38G      0.182000
     43 H11        -4.9680   -0.4760    6.7670 ha        1 38G      0.148000
     44 H12        -2.2530    1.7880    4.2470 ha        1 38G      0.192000
     45 H13        -4.1560    2.5110    2.8420 ha        1 38G      0.171000
     46 H14        -6.4750    1.7850    3.3730 ha        1 38G      0.124000
     47 H15        -7.3170   -0.3520    6.4610 hx        1 38G      0.132700
     48 H16        -7.8670    1.9910    5.0700 ho        1 38G      0.478000
     49 H17        -6.9850   -1.6260    4.3760 hn        1 38G      0.455300
     50 H19        -8.9240   -2.0210    5.7050 hx        1 38G      0.127700
     51 H20        -9.7160   -0.5640    4.9280 hx        1 38G      0.127700
     52 H21        -9.7270   -1.7750    2.6720 hx        1 38G      0.121700
     53 H22        -8.9000   -3.2170    3.4440 hx        1 38G      0.121700
     54 H24       -13.0010   -2.3870    4.1970 hx        1 38G      0.119867
     55 H25       -11.8060   -1.0460    4.5640 hx        1 38G      0.119867
     56 H26       -12.1160   -1.5570    2.8240 hx        1 38G      0.119867
     57 H27       -12.2580   -4.5060    3.3900 hx        1 38G      0.119867
     58 H28       -11.2510   -3.7770    2.0390 hx        1 38G      0.119867
     59 H29       -10.4690   -4.8990    3.2700 hx        1 38G      0.119867
     60 HAJ2       -7.7260   -0.4370    3.4800 hn        1 38G      0.455300
     61 HAM1      -10.9050   -3.2610    4.9660 hn        1 38G      0.459800
@<TRIPOS>BOND
     1    1    2 1   
     2    1   33 1   
     3    1   34 1   
     4    1   35 1   
     5    2    3 1   
     6    3    4 ar  
     7    3    5 ar  
     8    4    9 ar  
     9    4   36 1   
    10    5    6 1   
    11    5    7 ar  
    12    6   37 1   
    13    7    8 ar  
    14    7   38 1   
    15    8    9 ar  
    16    8   39 1   
    17    9   10 1   
    18   10   11 1   
    19   10   13 2   
    20   11   12 2   
    21   11   40 1   
    22   12   15 1   
    23   12   41 1   
    24   13   14 1   
    25   14   15 1   
    26   14   18 1   
    27   15   16 2   
    28   16   17 1   
    29   17   18 2   
    30   17   42 1   
    31   18   19 1   
    32   19   20 ar  
    33   19   21 ar  
    34   20   24 ar  
    35   20   43 1   
    36   21   22 ar  
    37   21   44 1   
    38   22   23 ar  
    39   22   45 1   
    40   23   24 ar  
    41   23   46 1   
    42   24   25 1   
    43   25   26 1   
    44   25   27 1   
    45   25   47 1   
    46   26   48 1   
    47   27   28 1   
    48   27   49 1   
    49   27   60 1   
    50   28   29 1   
    51   28   50 1   
    52   28   51 1   
    53   29   30 1   
    54   29   52 1   
    55   29   53 1   
    56   30   31 1   
    57   30   32 1   
    58   30   61 1   
    59   31   54 1   
    60   31   55 1   
    61   31   56 1   
    62   32   57 1   
    63   32   58 1   
    64   32   59 1   
@<TRIPOS>SUBSTRUCTURE
     1 38G         1 TEMP              0 ****  ****    0 ROOT
