@<TRIPOS>MOLECULE
38G
   61    64     1     0     0
SMALL
bcc


@<TRIPOS>ATOM
      1 CBF         1.5650   -1.4600   -1.0420 c3        1 38G      0.120700
      2 OBE         0.8220   -1.0210    0.0960 os        1 38G     -0.334900
      3 CAZ         1.5500   -0.5630    1.1740 ca        1 38G      0.098100
      4 CAY         0.8890   -0.6470    2.4080 ca        1 38G     -0.095000
      5 CBA         2.8340    0.0240    1.1130 ca        1 38G      0.104100
      6 OBD         3.4540    0.0960   -0.1100 oh        1 38G     -0.492100
      7 CBB         3.4380    0.5070    2.2840 ca        1 38G     -0.182000
      8 CBC         2.7740    0.4200    3.5020 ca        1 38G     -0.090000
      9 CAX         1.4970   -0.1540    3.5670 ca        1 38G     -0.187500
     10 CAV         0.8080   -0.2410    4.8630 cc        1 38G      0.476800
     11 CAU         1.5750   -0.6510    6.0230 cc        1 38G     -0.213300
     12 CAT         0.9640   -0.7510    7.2410 cd        1 38G     -0.041000
     13 NAW        -0.5000    0.0650    4.9200 nd        1 38G     -0.501800
     14 NAS        -1.0890   -0.0200    6.1030 na        1 38G      0.204200
     15 CAR        -0.4330   -0.4330    7.3200 cd        1 38G     -0.044300
     16 NAQ        -1.3150   -0.4460    8.3700 nc        1 38G     -0.244600
     17 CAP        -2.5210   -0.0580    7.8500 cc        1 38G      0.051600
     18 CAG        -2.4390    0.2160    6.4490 cd        1 38G     -0.169300
     19 CAB        -3.4880    0.6540    5.5680 ca        1 38G      0.052200
     20 CAA        -4.8090    0.2680    5.8590 ca        1 38G     -0.091000
     21 CAC        -3.2500    1.4670    4.4450 ca        1 38G     -0.050000
     22 CAD        -4.3080    1.8730    3.6280 ca        1 38G     -0.099000
     23 CAE        -5.6130    1.4890    3.9170 ca        1 38G     -0.144000
     24 CAF        -5.8610    0.6890    5.0420 ca        1 38G     -0.247300
     25 CAH        -7.2500    0.2920    5.3960 c3        1 38G      0.450600
     26 OAI        -8.2210    1.2880    5.3390 oh        1 38G     -0.576800
     27 NAJ        -7.7070   -0.8050    4.3540 n4        1 38G     -0.823000
     28 CAK        -9.0460   -1.3320    4.6910 c3        1 38G      0.076800
     29 CAL        -9.6190   -2.2660    3.6050 c3        1 38G      0.075800
     30 NAM       -10.9660   -2.8140    3.9570 n4        1 38G     -0.674400
     31 CAO       -12.0390   -1.7900    3.8060 c3        1 38G      0.077100
     32 CAN       -11.2710   -4.0080    3.1120 c3        1 38G      0.077100
     33 H1          2.4290   -2.0970   -0.7390 h1        1 38G      0.054700
     34 H2          1.9170   -0.5740   -1.6250 h1        1 38G      0.054700
     35 H3          0.8150   -2.0510   -1.6270 h1        1 38G      0.054700
     36 H4         -0.1100   -1.1060    2.4380 ha        1 38G      0.152000
     37 H5          4.3300    0.4940    0.0140 ho        1 38G      0.435000
     38 H6          4.4380    0.9630    2.2330 ha        1 38G      0.153000
     39 H7          3.2520    0.8160    4.4110 ha        1 38G      0.146000
     40 H8          2.6420   -0.8860    5.8880 ha        1 38G      0.178000
     41 H9          1.4860   -1.0620    8.1600 ha        1 38G      0.190000
     42 H10        -3.4050    0.0410    8.4820 h4        1 38G      0.182000
     43 H11        -5.0020   -0.3540    6.7480 ha        1 38G      0.148000
     44 H12        -2.2270    1.8070    4.2030 ha        1 38G      0.192000
     45 H13        -4.1030    2.5120    2.7530 ha        1 38G      0.171000
     46 H14        -6.4370    1.8280    3.2720 ha        1 38G      0.124000
     47 H15        -7.3450   -0.2120    6.4070 hx        1 38G      0.132700
     48 H16        -7.8490    2.0980    4.9440 ho        1 38G      0.478000
     49 H17        -7.7140   -0.3760    3.4230 hn        1 38G      0.455300
     50 H19        -9.7260   -0.4380    4.8450 hx        1 38G      0.127700
     51 H20        -8.9630   -1.8810    5.6750 hx        1 38G      0.127700
     52 H21        -8.9220   -3.1430    3.4500 hx        1 38G      0.121700
     53 H22        -9.7190   -1.7140    2.6240 hx        1 38G      0.121700
     54 H24       -12.1070   -1.4650    2.7330 hx        1 38G      0.119867
     55 H25       -13.0230   -2.2430    4.1170 hx        1 38G      0.119867
     56 H26       -11.8160   -0.9060    4.4610 hx        1 38G      0.119867
     57 H27       -10.5080   -4.8110    3.3030 hx        1 38G      0.119867
     58 H28       -12.2930   -4.3930    3.3830 hx        1 38G      0.119867
     59 H29       -11.2580   -3.7170    2.0270 hx        1 38G      0.119867
     60 HAJ2       -7.0000   -1.5480    4.3640 hn        1 38G      0.455300
     61 HAM1      -10.9490   -3.1180    4.9420 hn        1 38G      0.459800
@<TRIPOS>BOND
     1    1    2 1   
     2    1   33 1   
     3    1   34 1   
     4    1   35 1   
     5    2    3 1   
     6    3    4 ar  
     7    3    5 ar  
     8    4    9 ar  
     9    4   36 1   
    10    5    6 1   
    11    5    7 ar  
    12    6   37 1   
    13    7    8 ar  
    14    7   38 1   
    15    8    9 ar  
    16    8   39 1   
    17    9   10 1   
    18   10   11 1   
    19   10   13 2   
    20   11   12 2   
    21   11   40 1   
    22   12   15 1   
    23   12   41 1   
    24   13   14 1   
    25   14   15 1   
    26   14   18 1   
    27   15   16 2   
    28   16   17 1   
    29   17   18 2   
    30   17   42 1   
    31   18   19 1   
    32   19   20 ar  
    33   19   21 ar  
    34   20   24 ar  
    35   20   43 1   
    36   21   22 ar  
    37   21   44 1   
    38   22   23 ar  
    39   22   45 1   
    40   23   24 ar  
    41   23   46 1   
    42   24   25 1   
    43   25   26 1   
    44   25   27 1   
    45   25   47 1   
    46   26   48 1   
    47   27   28 1   
    48   27   49 1   
    49   27   60 1   
    50   28   29 1   
    51   28   50 1   
    52   28   51 1   
    53   29   30 1   
    54   29   52 1   
    55   29   53 1   
    56   30   31 1   
    57   30   32 1   
    58   30   61 1   
    59   31   54 1   
    60   31   55 1   
    61   31   56 1   
    62   32   57 1   
    63   32   58 1   
    64   32   59 1   
@<TRIPOS>SUBSTRUCTURE
     1 38G         1 TEMP              0 ****  ****    0 ROOT
