@<TRIPOS>MOLECULE
38H
   76    81     1     0     0
SMALL
bcc


@<TRIPOS>ATOM
      1 C1         -0.7240    0.0680    1.5390 ce        1 38H     -0.270300
      2 N1          0.7370   -1.8120    1.9050 nf        1 38H     -0.627300
      3 O1          2.8050   -3.2890    3.3340 o         1 38H     -0.546100
      4 S1         -0.3750    0.3660    3.1590 sx        1 38H      0.413500
      5 C2         -1.5740    0.4490    3.9330 c1        1 38H     -0.715700
      6 O2         -3.1050    2.7590    6.9160 o         1 38H     -0.785300
      7 S2         -1.1350   -0.1930   10.1960 sx        1 38H     -0.395000
      8 C3         -2.5750    0.5470    4.7690 c2        1 38H      0.082900
      9 N3         -0.8720   -2.0490    8.1290 nh        1 38H     -0.600400
     10 O3         -1.0360    3.5580    7.3200 o         1 38H     -0.785300
     11 C4         -0.1870   -1.6760   -1.4900 c1        1 38H     -0.137500
     12 N4         -1.3140    0.2640    7.5790 ne        1 38H     -0.664300
     13 O4         -3.5120    1.8740   13.5320 os        1 38H     -0.344900
     14 C5         -0.1220   -1.3810   -0.3330 ch        1 38H     -0.127300
     15 N5         -5.1940   -3.6980   13.3730 nh        1 38H     -0.137600
     16 C6         -0.0550   -1.0220    1.0340 cf        1 38H      0.359900
     17 N6         -4.5630   -3.6170   14.6140 n3        1 38H     -0.204700
     18 C7          0.6500   -1.3190    3.1400 ce        1 38H      0.446200
     19 C8          2.3090   -2.7380    4.3320 c         1 38H      0.669300
     20 C9          2.8180   -3.0460    5.6830 ce        1 38H     -0.110400
     21 C10         4.2960   -3.4260    5.8700 c3        1 38H     -0.029000
     22 C11         4.4450   -3.7400    7.3610 c2        1 38H     -0.082200
     23 C12         3.2450   -3.5580    7.9140 cd        1 38H     -0.201000
     24 C13         1.8770   -3.3200    8.2570 cd        1 38H      0.090000
     25 C14         2.2390   -3.1270    6.8840 cd        1 38H     -0.152000
     26 C15        -1.1360   -2.5420    6.8020 c3        1 38H      0.168100
     27 C16        -0.4780   -3.0330    9.1140 c3        1 38H      0.250000
     28 C17         0.9820   -3.3320    9.2260 c2        1 38H     -0.132200
     29 C18        -1.0080   -0.7590    8.5200 ce        1 38H      0.105600
     30 C19        -1.5860    1.4010    8.1630 cf        1 38H      0.469300
     31 C20        -1.9410    2.6950    7.3810 c         1 38H      0.845300
     32 C21        -1.5250    1.5040    9.6680 c3        1 38H      0.104300
     33 C22        -2.7640    2.1200   10.2710 c3        1 38H     -0.062400
     34 C23        -2.4550    2.8800   11.5490 c3        1 38H     -0.113400
     35 C24        -3.6210    2.8860   12.5220 c3        1 38H      0.128400
     36 C25        -3.5590    0.5690   13.0270 ce        1 38H     -0.060000
     37 C26        -4.8470   -0.0730   13.1860 ce        1 38H     -0.024100
     38 C27        -5.1180   -1.3190   12.8910 c1        1 38H     -0.120800
     39 C28        -5.3990   -2.5480   12.5520 c2        1 38H     -0.124200
     40 C29        -1.4430   -0.4600   11.9080 ce        1 38H     -0.031400
     41 C30        -2.4710    0.0050   12.5220 c1        1 38H      0.041200
     42 C31        -4.9850   -4.5400   15.5050 c1        1 38H      0.039100
     43 C32        -6.1200   -5.2270   14.8480 ce        1 38H     -0.512300
     44 C33        -6.8600   -6.2900   15.4920 ce        1 38H      0.529500
     45 C34        -7.9460   -5.2630   11.7520 c1        1 38H      0.515800
     46 C35        -6.2590   -4.6600   13.5680 ce        1 38H      0.540900
     47 N8         -7.1560   -4.9740   12.5890 n1        1 38H     -0.861400
     48 N7         -7.8200   -7.0210   15.0680 n2        1 38H     -0.786100
     49 H1         -1.3790    0.6950    0.9350 h4        1 38H      0.170000
     50 H2          0.9700   -1.3930    5.1240 hn        1 38H      0.338500
     51 H3         -3.0000   -0.3330    5.2850 ha        1 38H      0.128000
     52 H5         -3.0340    1.5150    5.0560 ha        1 38H      0.128000
     53 H6         -0.2450   -1.9380   -2.5150 ha        1 38H      0.160500
     54 H7          4.9580   -2.5760    5.5740 hc        1 38H      0.089700
     55 H8          4.5410   -4.3170    5.2400 hc        1 38H      0.089700
     56 H9          5.3930   -4.0440    7.7960 ha        1 38H      0.153000
     57 H10        -0.2510   -3.1310    6.4360 h1        1 38H      0.054367
     58 H11        -2.0350   -3.2170    6.8210 h1        1 38H      0.054367
     59 H12        -1.3350   -1.7030    6.0830 h1        1 38H      0.054367
     60 H13        -0.8390   -2.6820   10.1300 h1        1 38H      0.072200
     61 H14        -1.0070   -4.0050    8.8760 h1        1 38H      0.072200
     62 H15         1.3050   -3.6140   10.2450 ha        1 38H      0.151000
     63 H16        -0.6250    2.1350    9.9050 h1        1 38H      0.115700
     64 H17        -3.5180    1.3150   10.4780 hc        1 38H      0.068700
     65 H18        -3.2280    2.8210    9.5220 hc        1 38H      0.068700
     66 H19        -2.1910    3.9390   11.2900 hc        1 38H      0.055200
     67 H20        -1.5650    2.4300   12.0660 hc        1 38H      0.055200
     68 H21        -4.5990    2.7760   11.9870 h1        1 38H      0.043700
     69 H22        -3.6260    3.8310   13.1300 h1        1 38H      0.043700
     70 H23        -5.6430    0.5750   13.6060 ha        1 38H      0.152000
     71 H24        -5.7710   -2.8230   11.5460 h4        1 38H      0.168000
     72 H25        -0.6640   -1.0600   12.3940 h4        1 38H      0.146000
     73 H26        -3.7870   -2.9960   14.6810 hn        1 38H      0.333700
     74 H27        -6.5170   -6.4820   16.5350 h4        1 38H      0.031800
     75 H28        -8.1420   -6.8690   14.1370 hn        1 38H      0.372400
     76 N2          1.2930   -1.7790    4.2610 n         1 38H     -0.427400
@<TRIPOS>BOND
     1    1    4 1   
     2    1   16 2   
     3    1   49 1   
     4    2   16 1   
     5    2   18 2   
     6    3   19 2   
     7    4    5 2   
     8    4   18 1   
     9    5    8 2   
    10    6   31 1   
    11    7   29 2   
    12    7   32 1   
    13    7   40 1   
    14    8   51 1   
    15    8   52 1   
    16    9   26 1   
    17    9   27 1   
    18    9   29 1   
    19   10   31 1   
    20   11   14 3   
    21   11   53 1   
    22   12   29 1   
    23   12   30 2   
    24   13   35 1   
    25   13   36 1   
    26   14   16 1   
    27   15   17 1   
    28   15   39 1   
    29   15   46 2   
    30   17   42 2   
    31   17   73 1   
    32   18   76 1   
    33   19   20 1   
    34   19   76 1   
    35   20   21 1   
    36   20   25 2   
    37   21   22 1   
    38   21   54 1   
    39   21   55 1   
    40   22   23 2   
    41   22   56 1   
    42   23   24 1   
    43   23   25 1   
    44   24   25 1   
    45   24   28 2   
    46   26   57 1   
    47   26   58 1   
    48   26   59 1   
    49   27   28 1   
    50   27   60 1   
    51   27   61 1   
    52   28   62 1   
    53   30   31 1   
    54   30   32 1   
    55   32   33 1   
    56   32   63 1   
    57   33   34 1   
    58   33   64 1   
    59   33   65 1   
    60   34   35 1   
    61   34   66 1   
    62   34   67 1   
    63   35   68 1   
    64   35   69 1   
    65   36   37 1   
    66   36   41 2   
    67   37   38 2   
    68   37   70 1   
    69   38   39 2   
    70   39   71 1   
    71   40   41 2   
    72   40   72 1   
    73   42   43 2   
    74   43   44 1   
    75   43   46 1   
    76   44   48 2   
    77   44   74 1   
    78   45   47 3   
    79   46   47 1   
    80   48   75 1   
    81   50   76 1   
@<TRIPOS>SUBSTRUCTURE
     1 38H         1 TEMP              0 ****  ****    0 ROOT
