@<TRIPOS>MOLECULE
38K
   53    56     1     0     0
SMALL
bcc


@<TRIPOS>ATOM
      1 O30        -0.0680   -0.7190   -1.9170 o         1 38K     -0.670300
      2 S28         1.3420   -0.8110   -1.9000 sy        1 38K      1.547200
      3 O29         1.9160   -1.2040   -0.6710 o         1 38K     -0.670300
      4 N31         1.8150   -1.7600   -3.0840 n3        1 38K     -1.019700
      5 C10         1.9580    0.7280   -2.2920 ca        1 38K     -0.488800
      6 C9          3.2750    1.0440   -2.6180 ca        1 38K      0.281600
      7 N8          4.2360    0.0020   -2.7660 nh        1 38K     -0.633000
      8 C4          5.0240   -0.3810   -1.6480 ca        1 38K      0.090600
      9 C3          4.5340   -0.2870   -0.3320 ca        1 38K     -0.110000
     10 C5          6.2900   -0.9750   -1.8610 ca        1 38K     -0.147000
     11 C6          7.0100   -1.4900   -0.7880 ca        1 38K     -0.117000
     12 C7          6.4940   -1.4450    0.5070 ca        1 38K     -0.089000
     13 C2          5.2450   -0.8590    0.7240 ca        1 38K     -0.137600
     14 C1          4.6570   -0.8610    2.0810 c         1 38K      0.642700
     15 O47         5.2690   -0.7290    3.1430 o         1 38K     -0.498000
     16 O49         3.3160   -1.0400    2.2310 oh        1 38K     -0.581100
     17 C11         1.0120    1.8090   -2.2760 ca        1 38K      0.483200
     18 N12         1.2810    3.0670   -2.5460 nb        1 38K     -0.661000
     19 C13         2.5870    3.3960   -2.8630 ca        1 38K      0.446600
     20 C14         3.6230    2.4130   -2.9040 ca        1 38K     -0.200300
     21 C18         2.9090    4.7570   -3.1530 ca        1 38K     -0.181300
     22 C17         4.2030    5.1290   -3.4640 cp        1 38K      0.033000
     23 C16         5.2280    4.1450   -3.4820 ca        1 38K     -0.105000
     24 C15         4.9450    2.8300   -3.2100 ca        1 38K     -0.109000
     25 C19         4.5080    6.5120   -3.7870 cp        1 38K     -0.344600
     26 C20         5.6890    7.1950   -3.3570 ca        1 38K      0.701600
     27 O24         6.5760    6.4680   -2.6040 os        1 38K     -0.440100
     28 C25         7.7190    7.1440   -2.0670 c3        1 38K      0.122700
     29 N25         5.9530    8.4940   -3.6590 nb        1 38K     -0.766000
     30 C21         4.9950    9.1190   -4.4220 ca        1 38K      0.889300
     31 O26         5.3260   10.4280   -4.6950 os        1 38K     -0.410100
     32 C27         4.3920   11.1880   -5.4690 c3        1 38K      0.123700
     33 N22         3.8240    8.5680   -4.8950 nb        1 38K     -0.769000
     34 C23         3.6150    7.2850   -4.5620 ca        1 38K      0.495200
     35 H1          2.8860   -1.2000    1.3710 ho        1 38K      0.465000
     36 H2          1.2300   -2.0040   -3.8450 hn        1 38K      0.456300
     37 H3          4.8080    0.1620   -3.5780 hn        1 38K      0.406800
     38 H4          3.5710    0.2130   -0.1270 ha        1 38K      0.165000
     39 H5          6.7110   -1.0440   -2.8760 ha        1 38K      0.135000
     40 H6          7.9970   -1.9440   -0.9660 ha        1 38K      0.143000
     41 H7          7.0570   -1.8620    1.3560 ha        1 38K      0.160000
     42 H9         -0.0500    1.5820   -2.0260 h4        1 38K      0.064100
     43 H10         2.1030    5.5100   -3.1110 ha        1 38K      0.159000
     44 H11         6.2610    4.4600   -3.7060 ha        1 38K      0.155000
     45 H12         5.7680    2.0990   -3.2150 ha        1 38K      0.133000
     46 H13         8.3740    7.5160   -2.8910 h1        1 38K      0.059033
     47 H14         8.2260    6.3360   -1.4810 h1        1 38K      0.059033
     48 H15         7.4030    7.9820   -1.4030 h1        1 38K      0.059033
     49 H16         4.2630   10.7390   -6.4830 h1        1 38K      0.057700
     50 H17         3.4120   11.2640   -4.9410 h1        1 38K      0.057700
     51 H18         4.8930   12.1880   -5.5330 h1        1 38K      0.057700
     52 H19         2.6750    6.8400   -4.9420 h4        1 38K      0.040100
     53 H313        2.7180   -2.1580   -3.1530 hn        1 38K      0.456300
@<TRIPOS>BOND
     1    1    2 2   
     2    2    3 2   
     3    2    4 1   
     4    2    5 1   
     5    4   36 1   
     6    4   53 1   
     7    5    6 ar  
     8    5   17 ar  
     9    6    7 1   
    10    6   20 ar  
    11    7    8 1   
    12    7   37 1   
    13    8    9 ar  
    14    8   10 ar  
    15    9   13 ar  
    16    9   38 1   
    17   10   11 ar  
    18   10   39 1   
    19   11   12 ar  
    20   11   40 1   
    21   12   13 ar  
    22   12   41 1   
    23   13   14 1   
    24   14   15 2   
    25   14   16 1   
    26   16   35 1   
    27   17   18 ar  
    28   17   42 1   
    29   18   19 ar  
    30   19   20 ar  
    31   19   21 ar  
    32   20   24 ar  
    33   21   22 ar  
    34   21   43 1   
    35   22   23 ar  
    36   22   25 1   
    37   23   24 ar  
    38   23   44 1   
    39   24   45 1   
    40   25   26 ar  
    41   25   34 ar  
    42   26   27 1   
    43   26   29 ar  
    44   27   28 1   
    45   28   46 1   
    46   28   47 1   
    47   28   48 1   
    48   29   30 ar  
    49   30   31 1   
    50   30   33 ar  
    51   31   32 1   
    52   32   49 1   
    53   32   50 1   
    54   32   51 1   
    55   33   34 ar  
    56   34   52 1   
@<TRIPOS>SUBSTRUCTURE
     1 38K         1 TEMP              0 ****  ****    0 ROOT
