@<TRIPOS>MOLECULE
38K
   53    56     1     0     0
SMALL
bcc


@<TRIPOS>ATOM
      1 O30        -0.0970   -0.6740   -1.8250 o         1 38K     -0.670300
      2 S28         1.3120   -0.7810   -1.8420 sy        1 38K      1.547200
      3 O29         1.9110   -1.1840   -0.6270 o         1 38K     -0.670300
      4 N31         1.7460   -1.7320   -3.0390 n8        1 38K     -1.019700
      5 C10         1.9350    0.7520   -2.2440 ca        1 38K     -0.487800
      6 C9          3.2470    1.0550   -2.6000 ca        1 38K      0.281600
      7 N8          4.1930    0.0040   -2.7730 nu        1 38K     -0.633000
      8 C4          5.0030   -0.3900   -1.6750 ca        1 38K      0.090600
      9 C3          4.5450   -0.2950   -0.3470 ca        1 38K     -0.110000
     10 C5          6.2580   -0.9950   -1.9190 ca        1 38K     -0.147000
     11 C6          6.9980   -1.5200   -0.8650 ca        1 38K     -0.117000
     12 C7          6.5130   -1.4740    0.4420 ca        1 38K     -0.089000
     13 C2          5.2750   -0.8760    0.6900 ca        1 38K     -0.137600
     14 C1          4.7200   -0.8770    2.0600 c         1 38K      0.642700
     15 O47         5.3580   -0.7540    3.1080 o         1 38K     -0.498000
     16 O49         3.3810   -1.0420    2.2410 oh        1 38K     -0.581100
     17 C11         1.0000    1.8440   -2.2030 ca        1 38K      0.483200
     18 N12         1.2770    3.0990   -2.4750 nb        1 38K     -0.661000
     19 C13         2.5790    3.4150   -2.8220 ca        1 38K      0.446600
     20 C14         3.6030    2.4220   -2.8900 ca        1 38K     -0.200300
     21 C18         2.9080    4.7740   -3.1140 ca        1 38K     -0.181300
     22 C17         4.1980    5.1330   -3.4550 cp        1 38K      0.033000
     23 C16         5.2120    4.1380   -3.5010 ca        1 38K     -0.105000
     24 C15         4.9210    2.8260   -3.2260 ca        1 38K     -0.109000
     25 C19         4.5110    6.5140   -3.7800 cp        1 38K     -0.344600
     26 C20         5.7100    7.1820   -3.3760 ca        1 38K      0.701600
     27 O24         6.6060    6.4430   -2.6470 os        1 38K     -0.440100
     28 C25         7.7690    7.1040   -2.1350 c3        1 38K      0.122700
     29 N25         5.9800    8.4800   -3.6790 nb        1 38K     -0.766000
     30 C21         5.0110    9.1180   -4.4160 ca        1 38K      0.889300
     31 O26         5.3500   10.4250   -4.6920 os        1 38K     -0.410100
     32 C27         4.4060   11.1980   -5.4400 c3        1 38K      0.123700
     33 N22         3.8230    8.5820   -4.8630 nb        1 38K     -0.769000
     34 C23         3.6080    7.3000   -4.5300 ca        1 38K      0.495200
     35 H1          2.9290   -1.1950    1.3910 ho        1 38K      0.465000
     36 H2          2.6440   -2.1390   -3.1310 hn        1 38K      0.456300
     37 H3          4.7460    0.1590   -3.5990 hn        1 38K      0.406800
     38 H4          3.5920    0.2140   -0.1190 ha        1 38K      0.165000
     39 H5          6.6540   -1.0650   -2.9440 ha        1 38K      0.135000
     40 H6          7.9760   -1.9830   -1.0680 ha        1 38K      0.143000
     41 H7          7.0920   -1.8990    1.2760 ha        1 38K      0.160000
     42 H9         -0.0570    1.6270   -1.9280 h4        1 38K      0.064100
     43 H10         2.1120    5.5350   -3.0510 ha        1 38K      0.159000
     44 H11         6.2420    4.4430   -3.7480 ha        1 38K      0.155000
     45 H12         5.7360    2.0860   -3.2530 ha        1 38K      0.133000
     46 H13         8.2810    6.2880   -1.5640 h1        1 38K      0.059033
     47 H14         8.4090    7.4720   -2.9720 h1        1 38K      0.059033
     48 H15         7.4780    7.9440   -1.4600 h1        1 38K      0.059033
     49 H16         4.9170   12.1930   -5.5120 h1        1 38K      0.057700
     50 H17         3.4400   11.2830   -4.8880 h1        1 38K      0.057700
     51 H18         4.2480   10.7550   -6.4520 h1        1 38K      0.057700
     52 H19         2.6540    6.8670   -4.8900 h4        1 38K      0.040100
     53 H313        1.1420   -1.9680   -3.7870 hn        1 38K      0.456300
@<TRIPOS>BOND
     1    1    2 2   
     2    2    3 2   
     3    2    4 1   
     4    2    5 1   
     5    4   36 1   
     6    4   53 1   
     7    5    6 ar  
     8    5   17 ar  
     9    6    7 1   
    10    6   20 ar  
    11    7    8 1   
    12    7   37 1   
    13    8    9 ar  
    14    8   10 ar  
    15    9   13 ar  
    16    9   38 1   
    17   10   11 ar  
    18   10   39 1   
    19   11   12 ar  
    20   11   40 1   
    21   12   13 ar  
    22   12   41 1   
    23   13   14 1   
    24   14   15 2   
    25   14   16 1   
    26   16   35 1   
    27   17   18 ar  
    28   17   42 1   
    29   18   19 ar  
    30   19   20 ar  
    31   19   21 ar  
    32   20   24 ar  
    33   21   22 ar  
    34   21   43 1   
    35   22   23 ar  
    36   22   25 1   
    37   23   24 ar  
    38   23   44 1   
    39   24   45 1   
    40   25   26 ar  
    41   25   34 ar  
    42   26   27 1   
    43   26   29 ar  
    44   27   28 1   
    45   28   46 1   
    46   28   47 1   
    47   28   48 1   
    48   29   30 ar  
    49   30   31 1   
    50   30   33 ar  
    51   31   32 1   
    52   32   49 1   
    53   32   50 1   
    54   32   51 1   
    55   33   34 ar  
    56   34   52 1   
@<TRIPOS>SUBSTRUCTURE
     1 38K         1 TEMP              0 ****  ****    0 ROOT
