@<TRIPOS>MOLECULE
38L
   16    16     1     0     0
SMALL
bcc


@<TRIPOS>ATOM
      1 OAK         0.1410    0.4930    0.1130 o         1 38L     -0.190000
      2 NAG         1.2290   -0.0100    0.0960 no        1 38L      0.341200
      3 OAJ         1.7250   -0.5130    1.0660 o         1 38L     -0.190000
      4 CAA         1.9960   -0.0110   -1.1790 ca        1 38L     -0.233200
      5 CAF         2.2990    1.2020   -1.8410 ca        1 38L      0.214100
      6 OAH         1.8840    2.3630   -1.2470 oh        1 38L     -0.470100
      7 CAE         3.0220    1.1950   -3.0440 ca        1 38L     -0.258000
      8 CAD         3.4460   -0.0120   -3.5910 ca        1 38L     -0.019000
      9 CAC         3.1610   -1.2180   -2.9600 ca        1 38L     -0.258000
     10 CAB         2.4370   -1.2230   -1.7560 ca        1 38L      0.214100
     11 OAI         2.1080   -2.3840   -1.1110 oh        1 38L     -0.470100
     12 H1          2.1240    3.1040   -1.8270 ho        1 38L      0.436000
     13 H2          3.2490    2.1460   -3.5470 ha        1 38L      0.149000
     14 H3          4.0130   -0.0120   -4.5350 ha        1 38L      0.146000
     15 H4          3.4980   -2.1690   -3.3960 ha        1 38L      0.149000
     16 H5          2.5060   -3.1250   -1.5940 ho        1 38L      0.436000
@<TRIPOS>BOND
     1    1    2 1   
     2    2    3 1   
     3    2    4 1   
     4    4    5 ar  
     5    4   10 ar  
     6    5    6 1   
     7    5    7 ar  
     8    6   12 1   
     9    7    8 ar  
    10    7   13 1   
    11    8    9 ar  
    12    8   14 1   
    13    9   10 ar  
    14    9   15 1   
    15   10   11 1   
    16   11   16 1   
@<TRIPOS>SUBSTRUCTURE
     1 38L         1 TEMP              0 ****  ****    0 ROOT
