@<TRIPOS>MOLECULE
38L
   16    16     1     0     0
SMALL
bcc


@<TRIPOS>ATOM
      1 OAK         0.1960    0.5400    0.1620 o         1 38L     -0.190000
      2 NAG         1.2660   -0.0000    0.1180 no        1 38L      0.341200
      3 OAJ         1.7610   -0.5350    1.0700 o         1 38L     -0.190000
      4 CAA         2.0090   -0.0070   -1.1710 ca        1 38L     -0.233200
      5 CAF         2.3410    1.2040   -1.8210 ca        1 38L      0.214100
      6 OAH         1.9750    2.3690   -1.2040 oh        1 38L     -0.470100
      7 CAE         3.0410    1.1920   -3.0380 ca        1 38L     -0.258000
      8 CAD         3.4140   -0.0200   -3.6090 ca        1 38L     -0.019000
      9 CAC         3.1010   -1.2250   -2.9900 ca        1 38L     -0.258000
     10 CAB         2.4000   -1.2250   -1.7740 ca        1 38L      0.214100
     11 OAI         2.0430   -2.3840   -1.1390 oh        1 38L     -0.470100
     12 H1          2.2290    3.1110   -1.7760 ho        1 38L      0.436000
     13 H2          3.2910    2.1420   -3.5300 ha        1 38L      0.149000
     14 H3          3.9650   -0.0250   -4.5640 ha        1 38L      0.146000
     15 H4          3.3980   -2.1800   -3.4460 ha        1 38L      0.149000
     16 H5          2.4080   -3.1300   -1.6400 ho        1 38L      0.436000
@<TRIPOS>BOND
     1    1    2 1   
     2    2    3 1   
     3    2    4 1   
     4    4    5 ar  
     5    4   10 ar  
     6    5    6 1   
     7    5    7 ar  
     8    6   12 1   
     9    7    8 ar  
    10    7   13 1   
    11    8    9 ar  
    12    8   14 1   
    13    9   10 ar  
    14    9   15 1   
    15   10   11 1   
    16   11   16 1   
@<TRIPOS>SUBSTRUCTURE
     1 38L         1 TEMP              0 ****  ****    0 ROOT
