@<TRIPOS>MOLECULE
38M
   72    76     1     0     0
SMALL
bcc


@<TRIPOS>ATOM
      1 C          -0.4940   -4.7580    2.5460 ca        1 38M     -0.158000
      2 C1         -1.5710   -3.8620    2.5950 ca        1 38M     -0.091000
      3 C2         -1.4720   -2.5950    2.0440 ca        1 38M     -0.133000
      4 C3         -0.2660   -2.1880    1.4200 ca        1 38M      0.197400
      5 C4          0.8150   -3.1060    1.3730 ca        1 38M     -0.193600
      6 C5          0.6940   -4.3830    1.9370 ca        1 38M     -0.055000
      7 C6          2.0780   -2.7070    0.7220 c         1 38M      0.719100
      8 O           3.0820   -3.4360    0.6600 o         1 38M     -0.604500
      9 N           2.1060   -1.4050    0.1570 n         1 38M     -0.306500
     10 N7         -0.1540   -0.9110    0.8680 nc        1 38M     -0.656100
     11 C8          0.9760   -0.5710    0.2740 cd        1 38M      0.506800
     12 S           1.1470    1.0170   -0.4050 ss        1 38M     -0.088300
     13 C15        -0.3510    1.8940   -0.0010 c3        1 38M     -0.085600
     14 C16        -1.5510    1.4990   -0.8560 c         1 38M      0.663100
     15 C17         0.0220    3.3490   -0.2310 c3        1 38M     -0.073400
     16 O18        -1.4000    0.8430   -1.9040 o         1 38M     -0.584100
     17 N19        -2.8170    1.9760   -0.5070 n         1 38M     -0.441800
     18 C20         0.6050    3.9830    1.0160 c3        1 38M     -0.084400
     19 C21         1.0150    5.4170    0.7530 c3        1 38M     -0.079400
     20 C22         1.5850    6.0610    1.9910 c3        1 38M     -0.093100
     21 C23        -3.1220    2.4760    0.8160 c3        1 38M      0.078000
     22 C24        -3.8290    1.4510    1.7040 c3        1 38M     -0.106400
     23 C25        -5.0630    0.9090    1.0120 c3        1 38M     -0.074400
     24 C26        -4.7630    0.3750   -0.3900 c3        1 38M     -0.069000
     25 C27        -3.9800    1.4370   -1.1920 c3        1 38M      0.085000
     26 C7         -6.1140    0.1250   -1.0960 c3        1 38M      0.172800
     27 C18        -3.9960   -0.9410   -0.3040 c3        1 38M     -0.071400
     28 C19        -3.8760   -1.6290   -1.6470 c3        1 38M     -0.083400
     29 N1         -5.9850   -0.5380   -2.3770 n3        1 38M     -0.819200
     30 C35        -5.2350   -1.7780   -2.3260 c3        1 38M      0.162800
     31 C9          3.2590   -0.9330   -0.5370 ca        1 38M      0.033600
     32 C10         3.1430   -0.4000   -1.8380 ca        1 38M     -0.128000
     33 C11         4.2770    0.0690   -2.4970 ca        1 38M     -0.115000
     34 C12         5.5320    0.0090   -1.8960 ca        1 38M     -0.120000
     35 C13         5.6470   -0.5350   -0.6140 ca        1 38M      0.021400
     36 C14         4.5280   -1.0090    0.0730 ca        1 38M     -0.098000
     37 CL          7.1750   -0.6240    0.1280 cl        1 38M     -0.087400
     38 H          -0.5950   -5.7590    2.9900 ha        1 38M      0.140000
     39 H1         -2.5110   -4.1730    3.0780 ha        1 38M      0.136000
     40 H2         -2.3270   -1.9010    2.0780 ha        1 38M      0.148000
     41 H5          1.5520   -5.0740    1.8850 ha        1 38M      0.159000
     42 H15        -0.5930    1.7070    1.0790 h1        1 38M      0.106700
     43 H17         0.7650    3.4170   -1.0730 hc        1 38M      0.068200
     44 H17A       -0.8830    3.9300   -0.5520 hc        1 38M      0.068200
     45 H20        -0.1530    3.9550    1.8430 hc        1 38M      0.047200
     46 H20A        1.4960    3.3940    1.3600 hc        1 38M      0.047200
     47 H21         1.7770    5.4430   -0.0700 hc        1 38M      0.042200
     48 H21A        0.1250    6.0020    0.3990 hc        1 38M      0.042200
     49 H22         1.8830    7.1160    1.7760 hc        1 38M      0.035367
     50 H22A        0.8320    6.0690    2.8150 hc        1 38M      0.035367
     51 H22B        2.4860    5.5050    2.3450 hc        1 38M      0.035367
     52 H23        -2.1960    2.8530    1.3290 h1        1 38M      0.052200
     53 H23A       -3.8080    3.3630    0.6770 h1        1 38M      0.052200
     54 H24        -3.1290    0.6110    1.9530 hc        1 38M      0.051700
     55 H24A       -4.1210    1.9490    2.6640 hc        1 38M      0.051700
     56 H25        -5.5130    0.0930    1.6370 hc        1 38M      0.042700
     57 H25A       -5.8260    1.7280    0.9300 hc        1 38M      0.042700
     58 H27        -4.6690    2.3070   -1.3920 h1        1 38M      0.076700
     59 H27A       -3.6650    1.0020   -2.1820 h1        1 38M      0.076700
     60 H7         -6.7630   -0.4610   -0.3780 h1        1 38M      0.026700
     61 H7A        -6.6210    1.1150   -1.2810 h1        1 38M      0.026700
     62 H18        -2.9680   -0.7540    0.1060 hc        1 38M      0.044700
     63 H18A       -4.5270   -1.6210    0.4150 hc        1 38M      0.044700
     64 H19        -3.1760   -1.0480   -2.3060 hc        1 38M      0.059700
     65 H19A       -3.4360   -2.6500   -1.5070 hc        1 38M      0.059700
     66 HN1        -6.8950   -0.7050   -2.7630 hn        1 38M      0.361800
     67 H35        -5.0800   -2.1150   -3.3890 h1        1 38M      0.025700
     68 H35A       -5.8090   -2.5930   -1.7910 h1        1 38M      0.025700
     69 H10         2.1630   -0.3530   -2.3430 ha        1 38M      0.166000
     70 H11         4.1770    0.4860   -3.5110 ha        1 38M      0.144000
     71 H12         6.4210    0.3790   -2.4270 ha        1 38M      0.150000
     72 H14         4.6400   -1.4640    1.0710 ha        1 38M      0.168000
@<TRIPOS>BOND
     1    1    2 ar  
     2    1    6 ar  
     3    1   38 1   
     4    2    3 ar  
     5    2   39 1   
     6    3    4 ar  
     7    3   40 1   
     8    4    5 ar  
     9    4   10 1   
    10    5    6 ar  
    11    5    7 1   
    12    6   41 1   
    13    7    8 2   
    14    7    9 1   
    15    9   11 1   
    16    9   31 1   
    17   10   11 2   
    18   11   12 1   
    19   12   13 1   
    20   13   14 1   
    21   13   15 1   
    22   13   42 1   
    23   14   16 2   
    24   14   17 1   
    25   15   18 1   
    26   15   43 1   
    27   15   44 1   
    28   17   21 1   
    29   17   25 1   
    30   18   19 1   
    31   18   45 1   
    32   18   46 1   
    33   19   20 1   
    34   19   47 1   
    35   19   48 1   
    36   20   49 1   
    37   20   50 1   
    38   20   51 1   
    39   21   22 1   
    40   21   52 1   
    41   21   53 1   
    42   22   23 1   
    43   22   54 1   
    44   22   55 1   
    45   23   24 1   
    46   23   56 1   
    47   23   57 1   
    48   24   25 1   
    49   24   26 1   
    50   24   27 1   
    51   25   58 1   
    52   25   59 1   
    53   26   29 1   
    54   26   60 1   
    55   26   61 1   
    56   27   28 1   
    57   27   62 1   
    58   27   63 1   
    59   28   30 1   
    60   28   64 1   
    61   28   65 1   
    62   29   30 1   
    63   29   66 1   
    64   30   67 1   
    65   30   68 1   
    66   31   32 ar  
    67   31   36 ar  
    68   32   33 ar  
    69   32   69 1   
    70   33   34 ar  
    71   33   70 1   
    72   34   35 ar  
    73   34   71 1   
    74   35   36 ar  
    75   35   37 1   
    76   36   72 1   
@<TRIPOS>SUBSTRUCTURE
     1 38M         1 TEMP              0 ****  ****    0 ROOT
