@<TRIPOS>MOLECULE
38M
   72    76     1     0     0
SMALL
bcc


@<TRIPOS>ATOM
      1 C          -0.4730    0.2470   -0.0770 ca        1 38M     -0.158000
      2 C1          0.9000   -0.0260   -0.1530 ca        1 38M     -0.091000
      3 C2          1.6650   -0.1680    0.9930 ca        1 38M     -0.133000
      4 C3          1.0600   -0.0350    2.2670 ca        1 38M      0.197400
      5 C4         -0.3310    0.2370    2.3320 ca        1 38M     -0.193600
      6 C5         -1.0870    0.3770    1.1600 ca        1 38M     -0.055000
      7 C6         -0.9840    0.3710    3.6480 c         1 38M      0.719100
      8 O          -2.1890    0.6340    3.7960 o         1 38M     -0.604500
      9 N          -0.1490    0.1900    4.7820 n         1 38M     -0.306500
     10 N7          1.8240   -0.1710    3.4280 nc        1 38M     -0.656100
     11 C8          1.2250   -0.0630    4.6010 cd        1 38M      0.506800
     12 S           2.1550   -0.2090    6.0590 ss        1 38M     -0.088300
     13 C15         3.8540   -0.3850    5.5470 c3        1 38M     -0.085600
     14 C16         4.2020   -1.7710    5.0140 c         1 38M      0.663100
     15 C17         4.6340   -0.0820    6.8160 c3        1 38M     -0.073400
     16 O18         3.4360   -2.7360    5.1960 o         1 38M     -0.584100
     17 N19         5.4460   -1.9700    4.4090 n         1 38M     -0.441800
     18 C20         4.9360    1.3970    6.9510 c3        1 38M     -0.084400
     19 C21         5.6710    1.6850    8.2440 c3        1 38M     -0.079400
     20 C22         5.9870    3.1510    8.3810 c3        1 38M     -0.093100
     21 C23         6.2470   -0.8780    3.9010 c3        1 38M      0.078000
     22 C24         6.1190   -0.6850    2.3880 c3        1 38M     -0.106400
     23 C25         6.4100   -1.9790    1.6590 c3        1 38M     -0.074400
     24 C26         5.5730   -3.1490    2.1820 c3        1 38M     -0.069000
     25 C27         5.6940   -3.2250    3.7200 c3        1 38M      0.085000
     26 C7          6.1530   -4.4480    1.5800 c3        1 38M      0.172800
     27 C18         4.1200   -3.0010    1.7400 c3        1 38M     -0.071400
     28 C19         3.2990   -4.2390    2.0300 c3        1 38M     -0.083400
     29 N1          5.3550   -5.6230    1.8600 n7        1 38M     -0.819200
     30 C35         3.9630   -5.4970    1.4740 c3        1 38M      0.162800
     31 C9         -0.6840    0.2530    6.1020 ca        1 38M      0.033600
     32 C10        -0.4490   -0.7930    7.0200 ca        1 38M     -0.128000
     33 C11        -0.9670   -0.7110    8.3100 ca        1 38M     -0.115000
     34 C12        -1.7290    0.3850    8.7080 ca        1 38M     -0.120000
     35 C13        -1.9760    1.4110    7.7920 ca        1 38M      0.021400
     36 C14        -1.4650    1.3590    6.4940 ca        1 38M     -0.098000
     37 Cl         -2.9130    2.7490    8.2620 cl        1 38M     -0.087400
     38 H          -1.0610    0.3570   -1.0000 ha        1 38M      0.140000
     39 H1          1.3750   -0.1300   -1.1410 ha        1 38M      0.136000
     40 H2          2.7410   -0.3930    0.9220 ha        1 38M      0.148000
     41 H5         -2.1670    0.5880    1.2430 ha        1 38M      0.159000
     42 H15         4.0670    0.3800    4.7530 h1        1 38M      0.106700
     43 H17         4.0460   -0.4310    7.7110 hc        1 38M      0.068200
     44 H17A        5.5980   -0.6580    6.8200 hc        1 38M      0.068200
     45 H20         5.5610    1.7350    6.0820 hc        1 38M      0.047200
     46 H20A        3.9800    1.9840    6.9220 hc        1 38M      0.047200
     47 H21         6.6210    1.0890    8.2750 hc        1 38M      0.042200
     48 H21A        5.0430    1.3510    9.1120 hc        1 38M      0.042200
     49 H22         6.6340    3.4970    7.5390 hc        1 38M      0.035367
     50 H22A        5.0500    3.7590    8.3750 hc        1 38M      0.035367
     51 H22B        6.5260    3.3430    9.3410 hc        1 38M      0.035367
     52 H23         7.3230   -1.1270    4.1390 h1        1 38M      0.052200
     53 H23A        6.0050    0.0820    4.4310 h1        1 38M      0.052200
     54 H24         5.0870   -0.3250    2.1340 hc        1 38M      0.051700
     55 H24A        6.8450    0.1040    2.0650 hc        1 38M      0.051700
     56 H25         7.4970   -2.2320    1.7820 hc        1 38M      0.042700
     57 H25A        6.2190   -1.8420    0.5630 hc        1 38M      0.042700
     58 H27         4.9920   -4.0140    4.1120 h1        1 38M      0.076700
     59 H27A        6.7490   -3.5310    3.9760 h1        1 38M      0.076700
     60 H7          6.2780   -4.2750    0.4690 h1        1 38M      0.026700
     61 H7A         7.1780   -4.6280    2.0120 h1        1 38M      0.026700
     62 H18         4.0990   -2.7910    0.6370 hc        1 38M      0.044700
     63 H18A        3.6540   -2.1220    2.2590 hc        1 38M      0.044700
     64 H19         2.2870   -4.1360    1.5600 hc        1 38M      0.059700
     65 H19A        3.1480   -4.3400    3.1380 hc        1 38M      0.059700
     66 HN1         5.7620   -6.4220    1.4100 hn        1 38M      0.361800
     67 H35         3.4250   -6.4030    1.8720 h1        1 38M      0.025700
     68 H35A        3.8390   -5.4940    0.3500 h1        1 38M      0.025700
     69 H10         0.1400   -1.6790    6.7260 ha        1 38M      0.166000
     70 H11        -0.7760   -1.5300    9.0210 ha        1 38M      0.144000
     71 H12        -2.1370    0.4370    9.7290 ha        1 38M      0.150000
     72 H14        -1.6950    2.1620    5.7740 ha        1 38M      0.168000
@<TRIPOS>BOND
     1    1    2 ar  
     2    1    6 ar  
     3    1   38 1   
     4    2    3 ar  
     5    2   39 1   
     6    3    4 ar  
     7    3   40 1   
     8    4    5 ar  
     9    4   10 1   
    10    5    6 ar  
    11    5    7 1   
    12    6   41 1   
    13    7    8 2   
    14    7    9 1   
    15    9   11 1   
    16    9   31 1   
    17   10   11 2   
    18   11   12 1   
    19   12   13 1   
    20   13   14 1   
    21   13   15 1   
    22   13   42 1   
    23   14   16 2   
    24   14   17 1   
    25   15   18 1   
    26   15   43 1   
    27   15   44 1   
    28   17   21 1   
    29   17   25 1   
    30   18   19 1   
    31   18   45 1   
    32   18   46 1   
    33   19   20 1   
    34   19   47 1   
    35   19   48 1   
    36   20   49 1   
    37   20   50 1   
    38   20   51 1   
    39   21   22 1   
    40   21   52 1   
    41   21   53 1   
    42   22   23 1   
    43   22   54 1   
    44   22   55 1   
    45   23   24 1   
    46   23   56 1   
    47   23   57 1   
    48   24   25 1   
    49   24   26 1   
    50   24   27 1   
    51   25   58 1   
    52   25   59 1   
    53   26   29 1   
    54   26   60 1   
    55   26   61 1   
    56   27   28 1   
    57   27   62 1   
    58   27   63 1   
    59   28   30 1   
    60   28   64 1   
    61   28   65 1   
    62   29   30 1   
    63   29   66 1   
    64   30   67 1   
    65   30   68 1   
    66   31   32 ar  
    67   31   36 ar  
    68   32   33 ar  
    69   32   69 1   
    70   33   34 ar  
    71   33   70 1   
    72   34   35 ar  
    73   34   71 1   
    74   35   36 ar  
    75   35   37 1   
    76   36   72 1   
@<TRIPOS>SUBSTRUCTURE
     1 38M         1 TEMP              0 ****  ****    0 ROOT
