@<TRIPOS>MOLECULE
38M
   72    76     1     0     0
SMALL
bcc


@<TRIPOS>ATOM
      1 C          -0.4710    0.2440   -0.0800 ca        1 38M     -0.158000
      2 C1          0.9020   -0.0290   -0.1550 ca        1 38M     -0.091000
      3 C2          1.6670   -0.1710    0.9910 ca        1 38M     -0.133000
      4 C3          1.0610   -0.0370    2.2660 ca        1 38M      0.197400
      5 C4         -0.3300    0.2350    2.3290 ca        1 38M     -0.193600
      6 C5         -1.0860    0.3740    1.1570 ca        1 38M     -0.055000
      7 C6         -0.9840    0.3700    3.6450 c         1 38M      0.719100
      8 O          -2.1890    0.6340    3.7920 o         1 38M     -0.604500
      9 N          -0.1490    0.1910    4.7800 n         1 38M     -0.306500
     10 N7          1.8240   -0.1710    3.4270 nc        1 38M     -0.656100
     11 C8          1.2250   -0.0620    4.5990 cd        1 38M      0.506800
     12 S           2.1550   -0.2070    6.0570 ss        1 38M     -0.088300
     13 C15         3.8540   -0.3830    5.5470 c3        1 38M     -0.085600
     14 C16         4.2020   -1.7700    5.0150 c         1 38M      0.663100
     15 C17         4.6330   -0.0780    6.8160 c3        1 38M     -0.073400
     16 O18         3.4360   -2.7350    5.1990 o         1 38M     -0.584100
     17 N19         5.4460   -1.9700    4.4110 n         1 38M     -0.441800
     18 C20         4.9360    1.4010    6.9490 c3        1 38M     -0.084400
     19 C21         5.6700    1.6900    8.2410 c3        1 38M     -0.079400
     20 C22         5.9860    3.1570    8.3770 c3        1 38M     -0.093100
     21 C23         6.2470   -0.8780    3.9010 c3        1 38M      0.078000
     22 C24         6.1190   -0.6870    2.3890 c3        1 38M     -0.106400
     23 C25         6.4100   -1.9820    1.6610 c3        1 38M     -0.074400
     24 C26         5.5740   -3.1510    2.1850 c3        1 38M     -0.069000
     25 C27         5.6940   -3.2260    3.7240 c3        1 38M      0.085000
     26 C7          6.1540   -4.4510    1.5850 c3        1 38M      0.172800
     27 C18         4.1200   -3.0040    1.7430 c3        1 38M     -0.071400
     28 C19         3.3000   -4.2420    2.0340 c3        1 38M     -0.083400
     29 N1          5.3560   -5.6260    1.8670 n3        1 38M     -0.819200
     30 C35         3.9640   -5.5000    1.4800 c3        1 38M      0.162800
     31 C9         -0.6850    0.2540    6.0990 ca        1 38M      0.033600
     32 C10        -0.4490   -0.7900    7.0190 ca        1 38M     -0.128000
     33 C11        -0.9680   -0.7080    8.3080 ca        1 38M     -0.115000
     34 C12        -1.7310    0.3880    8.7040 ca        1 38M     -0.120000
     35 C13        -1.9780    1.4140    7.7880 ca        1 38M      0.021400
     36 C14        -1.4670    1.3610    6.4900 ca        1 38M     -0.098000
     37 CL         -2.9160    2.7520    8.2570 cl        1 38M     -0.087400
     38 H          -1.0590    0.3520   -1.0020 ha        1 38M      0.140000
     39 H1          1.3780   -0.1340   -1.1420 ha        1 38M      0.136000
     40 H2          2.7430   -0.3950    0.9220 ha        1 38M      0.148000
     41 H5         -2.1650    0.5850    1.2390 ha        1 38M      0.159000
     42 H15         4.0670    0.3800    4.7520 h1        1 38M      0.106700
     43 H17         5.5970   -0.6550    6.8210 hc        1 38M      0.068200
     44 H17A        4.0450   -0.4260    7.7100 hc        1 38M      0.068200
     45 H20         3.9790    1.9870    6.9190 hc        1 38M      0.047200
     46 H20A        5.5600    1.7370    6.0790 hc        1 38M      0.047200
     47 H21         5.0420    1.3580    9.1100 hc        1 38M      0.042200
     48 H21A        6.6200    1.0940    8.2740 hc        1 38M      0.042200
     49 H22         6.6330    3.5010    7.5340 hc        1 38M      0.035367
     50 H22A        5.0490    3.7650    8.3700 hc        1 38M      0.035367
     51 H22B        6.5240    3.3490    9.3360 hc        1 38M      0.035367
     52 H23         7.3230   -1.1270    4.1400 h1        1 38M      0.052200
     53 H23A        6.0050    0.0830    4.4300 h1        1 38M      0.052200
     54 H24         6.8450    0.1020    2.0650 hc        1 38M      0.051700
     55 H24A        5.0870   -0.3280    2.1330 hc        1 38M      0.051700
     56 H25         6.2190   -1.8460    0.5650 hc        1 38M      0.042700
     57 H25A        7.4970   -2.2350    1.7840 hc        1 38M      0.042700
     58 H27         4.9920   -4.0140    4.1160 h1        1 38M      0.076700
     59 H27A        6.7490   -3.5310    3.9800 h1        1 38M      0.076700
     60 H7          7.1780   -4.6300    2.0180 h1        1 38M      0.026700
     61 H7A         6.2790   -4.2790    0.4740 h1        1 38M      0.026700
     62 H18         4.1000   -2.7950    0.6400 hc        1 38M      0.044700
     63 H18A        3.6540   -2.1240    2.2610 hc        1 38M      0.044700
     64 H19         3.1480   -4.3410    3.1430 hc        1 38M      0.059700
     65 H19A        2.2880   -4.1400    1.5650 hc        1 38M      0.059700
     66 HN1         5.7630   -6.4260    1.4180 hn        1 38M      0.361800
     67 H35         3.4260   -6.4060    1.8790 h1        1 38M      0.025700
     68 H35A        3.8400   -5.4980    0.3560 h1        1 38M      0.025700
     69 H10         0.1400   -1.6770    6.7260 ha        1 38M      0.166000
     70 H11        -0.7770   -1.5260    9.0200 ha        1 38M      0.144000
     71 H12        -2.1390    0.4420    9.7250 ha        1 38M      0.150000
     72 H14        -1.6960    2.1630    5.7690 ha        1 38M      0.168000
@<TRIPOS>BOND
     1    1    2 ar  
     2    1    6 ar  
     3    1   38 1   
     4    2    3 ar  
     5    2   39 1   
     6    3    4 ar  
     7    3   40 1   
     8    4    5 ar  
     9    4   10 1   
    10    5    6 ar  
    11    5    7 1   
    12    6   41 1   
    13    7    8 2   
    14    7    9 1   
    15    9   11 1   
    16    9   31 1   
    17   10   11 2   
    18   11   12 1   
    19   12   13 1   
    20   13   14 1   
    21   13   15 1   
    22   13   42 1   
    23   14   16 2   
    24   14   17 1   
    25   15   18 1   
    26   15   43 1   
    27   15   44 1   
    28   17   21 1   
    29   17   25 1   
    30   18   19 1   
    31   18   45 1   
    32   18   46 1   
    33   19   20 1   
    34   19   47 1   
    35   19   48 1   
    36   20   49 1   
    37   20   50 1   
    38   20   51 1   
    39   21   22 1   
    40   21   52 1   
    41   21   53 1   
    42   22   23 1   
    43   22   54 1   
    44   22   55 1   
    45   23   24 1   
    46   23   56 1   
    47   23   57 1   
    48   24   25 1   
    49   24   26 1   
    50   24   27 1   
    51   25   58 1   
    52   25   59 1   
    53   26   29 1   
    54   26   60 1   
    55   26   61 1   
    56   27   28 1   
    57   27   62 1   
    58   27   63 1   
    59   28   30 1   
    60   28   64 1   
    61   28   65 1   
    62   29   30 1   
    63   29   66 1   
    64   30   67 1   
    65   30   68 1   
    66   31   32 ar  
    67   31   36 ar  
    68   32   33 ar  
    69   32   69 1   
    70   33   34 ar  
    71   33   70 1   
    72   34   35 ar  
    73   34   71 1   
    74   35   36 ar  
    75   35   37 1   
    76   36   72 1   
@<TRIPOS>SUBSTRUCTURE
     1 38M         1 TEMP              0 ****  ****    0 ROOT
