@<TRIPOS>MOLECULE
38M
   72    71     1     0     0
SMALL
bcc


@<TRIPOS>ATOM
      1 C          -4.4000   -1.8840   -4.4720 c1        1 38M     -0.157000
      2 C1         -3.1260   -1.5220   -4.8930 c1        1 38M     -0.111500
      3 C2         -2.2660   -0.8670   -4.0210 c1        1 38M     -0.111500
      4 C3         -2.6840   -0.5700   -2.7130 c1        1 38M      0.057000
      5 C4         -3.9450   -0.9290   -2.2960 c1        1 38M     -0.172000
      6 C5         -4.8140   -1.5910   -3.1800 c2        1 38M     -0.055000
      7 C6         -4.4010   -0.5850   -0.9030 c1        1 38M      0.356000
      8 O          -5.5360   -0.8480   -0.5530 o         1 38M     -0.328000
      9 N          -3.5400    0.0990   -0.0340 n3        1 38M     -0.240000
     10 N7         -1.7670    0.0710   -1.7820 n2        1 38M     -0.230000
     11 C8         -2.2210    0.4520   -0.4660 c2        1 38M     -0.019000
     12 S          -1.1620    1.3940    0.5990 ss        1 38M      0.326000
     13 C15         0.5330    1.0050    0.2420 c3        1 38M     -0.259000
     14 C16         1.0590    0.0360    1.2800 c2        1 38M      0.315000
     15 C17         1.3570    2.2700    0.2710 c3        1 38M     -0.144000
     16 O18         0.9650    0.3070    2.4620 o         1 38M     -0.357000
     17 N19         1.4910   -1.2640    0.8820 n         1 38M     -0.310000
     18 C20         0.4730    3.4390    0.6700 c3        1 38M     -0.172000
     19 C21         1.3400    4.5890    1.1410 c3        1 38M     -0.155000
     20 C22         0.4680    5.6600    1.7540 c3        1 38M     -0.211000
     21 C23         1.8180   -2.2640    1.8020 c3        1 38M     -0.030000
     22 C24         2.5120   -3.1870    1.2620 c3        1 38M     -0.175000
     23 C25         3.3430   -3.0130    0.4610 c3        1 38M     -0.151000
     24 C26         2.9110   -1.8750   -0.5740 c3        1 38M     -0.047000
     25 C27         1.6310   -1.6760   -0.5890 c3        1 38M     -0.023000
     26 C7          3.5080   -0.7560   -0.1860 c3        1 38M     -0.066000
     27 C18         3.0840   -2.0630   -1.1250 c3        1 38M     -0.152000
     28 C19         4.6140   -2.1460   -1.2920 c3        1 38M     -0.156000
     29 N1          4.9330   -0.8320   -0.2690 n3        1 38M     -0.302000
     30 C35         5.1730   -1.0900   -0.9840 c3        1 38M     -0.073000
     31 C9         -4.0090    0.5270    1.2390 c2        1 38M      0.043000
     32 C10        -3.8940   -0.3120    2.3360 c2        1 38M     -0.132000
     33 C11        -4.4610    0.0490    3.5480 c1        1 38M     -0.113000
     34 C12        -5.1430    1.2490    3.6640 c1        1 38M     -0.120000
     35 C13        -5.2580    2.0900    2.5670 c1        1 38M     -0.056000
     36 C14        -4.6920    1.7290    1.3560 c2        1 38M     -0.099000
     37 CL         -6.1250    3.5960    2.7110 cl        1 38M     -0.008000
     38 H          -5.0050   -2.3440   -5.0860 ha        1 38M      0.141000
     39 H1         -2.8350   -1.7270   -5.8020 ha        1 38M      0.141500
     40 H2         -1.3720   -0.6130   -4.3170 ha        1 38M      0.141500
     41 H5         -5.7090   -1.8460   -2.8840 ha        1 38M      0.160000
     42 H15         0.5940    0.5980   -0.6430 h1        1 38M      0.139000
     43 H17         2.0810    2.1730    0.9210 hc        1 38M      0.096500
     44 H17A        1.7340    2.4350   -0.6160 hc        1 38M      0.096500
     45 H20        -0.0580    3.7250   -0.1010 hc        1 38M      0.102000
     46 H20A       -0.1250    3.1640    1.3950 hc        1 38M      0.102000
     47 H21         1.8280    4.9630    0.3790 hc        1 38M      0.077000
     48 H21A        1.9760    4.2660    1.8080 hc        1 38M      0.077000
     49 H22        -0.3160    5.8090    1.1840 hc        1 38M      0.074667
     50 H22A        0.1750    5.3720    2.6430 hc        1 38M      0.074667
     51 H22B        0.9780    6.4920    1.8320 hc        1 38M      0.074667
     52 H23         2.3320   -1.8660    2.5390 h1        1 38M      0.100500
     53 H23A        0.9920   -2.6530    2.1610 h1        1 38M      0.100500
     54 H24         1.8680   -3.8080    0.8550 hc        1 38M      0.089000
     55 H24A        2.9450   -3.6700    2.0020 hc        1 38M      0.089000
     56 H25         4.1720   -2.7420    0.9110 hc        1 38M      0.093500
     57 H25A        3.4990   -3.8510   -0.0270 hc        1 38M      0.093500
     58 H27         1.1380   -2.4990   -0.7840 h1        1 38M      0.082500
     59 H27A        1.3840   -0.9460   -1.1950 h1        1 38M      0.082500
     60 H7          3.2560   -0.5700    0.7430 h1        1 38M      0.073000
     61 H7A         3.1970   -0.0180   -0.7530 h1        1 38M      0.073000
     62 H18         2.7000   -2.9570   -1.2870 hc        1 38M      0.081000
     63 H18A        2.7260   -1.4380   -1.7990 hc        1 38M      0.081000
     64 H19         4.9580   -2.8660   -0.7220 hc        1 38M      0.089000
     65 H19A        4.8210   -2.3540   -2.2260 hc        1 38M      0.089000
     66 HN1         5.2940   -0.0020   -0.1050 hn        1 38M      0.161000
     67 H35         6.1480   -1.2360   -0.9630 h1        1 38M      0.067000
     68 H35A        4.9640   -0.4060   -1.6600 h1        1 38M      0.067000
     69 H10        -3.4140   -1.1580    2.2550 ha        1 38M      0.164000
     70 H11        -4.3800   -0.5430    4.3210 ha        1 38M      0.144000
     71 H12        -5.5420    1.5040    4.5180 ha        1 38M      0.151000
     72 H14        -4.7730    2.3210    0.5830 ha        1 38M      0.169000
@<TRIPOS>BOND
     1    1    6 1   
     2    1   38 1   
     3    2    3 1   
     4    2   39 1   
     5    3   40 1   
     6    4    5 1   
     7    4   10 1   
     8    5    6 1   
     9    6   41 1   
    10    7    8 1   
    11    7    9 1   
    12    9   11 1   
    13    9   31 1   
    14   10   11 1   
    15   11   12 1   
    16   12   13 1   
    17   13   14 1   
    18   13   15 1   
    19   13   42 1   
    20   14   16 1   
    21   14   17 1   
    22   15   18 1   
    23   15   43 1   
    24   15   44 1   
    25   17   21 1   
    26   17   25 1   
    27   18   19 1   
    28   18   45 1   
    29   18   46 1   
    30   19   20 1   
    31   19   47 1   
    32   19   48 1   
    33   20   49 1   
    34   20   50 1   
    35   20   51 1   
    36   21   22 1   
    37   21   52 1   
    38   21   53 1   
    39   22   23 1   
    40   22   54 1   
    41   22   55 1   
    42   23   24 1   
    43   23   56 1   
    44   23   57 1   
    45   24   25 1   
    46   24   26 1   
    47   24   27 1   
    48   25   58 1   
    49   25   59 1   
    50   26   29 1   
    51   26   60 1   
    52   26   61 1   
    53   27   28 1   
    54   27   62 1   
    55   27   63 1   
    56   28   30 1   
    57   28   64 1   
    58   28   65 1   
    59   29   30 1   
    60   29   66 1   
    61   30   67 1   
    62   30   68 1   
    63   31   32 1   
    64   31   36 1   
    65   32   33 1   
    66   32   69 1   
    67   33   70 1   
    68   34   35 1   
    69   34   71 1   
    70   35   36 1   
    71   36   72 1   
@<TRIPOS>SUBSTRUCTURE
     1 38M         1 TEMP              0 ****  ****    0 ROOT
