@<TRIPOS>MOLECULE
38M
   72    76     1     0     0
SMALL
bcc


@<TRIPOS>ATOM
      1 C          -0.4670    0.2530   -0.0810 ca        1 38M     -0.158000
      2 C1          0.9060   -0.0210   -0.1550 ca        1 38M     -0.091000
      3 C2          1.6700   -0.1640    0.9910 ca        1 38M     -0.133000
      4 C3          1.0630   -0.0320    2.2650 ca        1 38M      0.197400
      5 C4         -0.3280    0.2410    2.3280 ca        1 38M     -0.193600
      6 C5         -1.0830    0.3820    1.1560 ca        1 38M     -0.055000
      7 C6         -0.9820    0.3740    3.6440 c         1 38M      0.719100
      8 O          -2.1870    0.6380    3.7900 o         1 38M     -0.604500
      9 N          -0.1480    0.1920    4.7790 n         1 38M     -0.306500
     10 N7          1.8260   -0.1680    3.4270 nc        1 38M     -0.656100
     11 C8          1.2260   -0.0610    4.5990 cd        1 38M      0.506800
     12 S           2.1540   -0.2080    6.0580 ss        1 38M     -0.088300
     13 C15         3.8540   -0.3850    5.5480 c3        1 38M     -0.085600
     14 C16         4.2010   -1.7710    5.0150 c         1 38M      0.663100
     15 C17         4.6320   -0.0820    6.8180 c3        1 38M     -0.073400
     16 O18         3.4340   -2.7360    5.1980 o         1 38M     -0.584100
     17 N19         5.4450   -1.9710    4.4110 n         1 38M     -0.441800
     18 C20         4.9360    1.3960    6.9530 c3        1 38M     -0.084400
     19 C21         5.6690    1.6840    8.2460 c3        1 38M     -0.079400
     20 C22         5.9860    3.1500    8.3830 c3        1 38M     -0.093100
     21 C23         6.2470   -0.8800    3.9030 c3        1 38M      0.078000
     22 C24         6.1190   -0.6870    2.3900 c3        1 38M     -0.106400
     23 C25         6.4100   -1.9810    1.6620 c3        1 38M     -0.074400
     24 C26         5.5730   -3.1510    2.1840 c3        1 38M     -0.069000
     25 C27         5.6930   -3.2270    3.7230 c3        1 38M      0.085000
     26 C7          6.1530   -4.4500    1.5830 c3        1 38M      0.172800
     27 C18         4.1200   -3.0020    1.7420 c3        1 38M     -0.071400
     28 C19         3.2990   -4.2400    2.0310 c3        1 38M     -0.083400
     29 N1          5.3540   -5.6250    1.8630 n3        1 38M     -0.819200
     30 C35         3.9620   -5.4980    1.4770 c3        1 38M      0.162800
     31 C9         -0.6860    0.2540    6.0980 ca        1 38M      0.033600
     32 C10        -0.4510   -0.7930    7.0160 ca        1 38M     -0.128000
     33 C11        -0.9710   -0.7130    8.3050 ca        1 38M     -0.115000
     34 C12        -1.7340    0.3830    8.7030 ca        1 38M     -0.120000
     35 C13        -1.9790    1.4100    7.7880 ca        1 38M      0.021400
     36 C14        -1.4670    1.3590    6.4900 ca        1 38M     -0.098000
     37 CL         -2.9170    2.7480    8.2580 cl        1 38M     -0.087400
     38 H          -1.0540    0.3630   -1.0040 ha        1 38M      0.140000
     39 H1          1.3830   -0.1240   -1.1430 ha        1 38M      0.136000
     40 H2          2.7460   -0.3890    0.9220 ha        1 38M      0.148000
     41 H5         -2.1620    0.5940    1.2370 ha        1 38M      0.159000
     42 H15         4.0680    0.3790    4.7540 h1        1 38M      0.106700
     43 H17         5.5960   -0.6590    6.8230 hc        1 38M      0.068200
     44 H17A        4.0430   -0.4310    7.7120 hc        1 38M      0.068200
     45 H20         3.9800    1.9840    6.9230 hc        1 38M      0.047200
     46 H20A        5.5610    1.7340    6.0840 hc        1 38M      0.047200
     47 H21         5.0400    1.3510    9.1140 hc        1 38M      0.042200
     48 H21A        6.6190    1.0870    8.2780 hc        1 38M      0.042200
     49 H22         6.6340    3.4950    7.5420 hc        1 38M      0.035367
     50 H22A        6.5240    3.3410    9.3440 hc        1 38M      0.035367
     51 H22B        5.0500    3.7590    8.3760 hc        1 38M      0.035367
     52 H23         7.3230   -1.1290    4.1410 h1        1 38M      0.052200
     53 H23A        6.0050    0.0810    4.4330 h1        1 38M      0.052200
     54 H24         6.8460    0.1020    2.0670 hc        1 38M      0.051700
     55 H24A        5.0880   -0.3270    2.1350 hc        1 38M      0.051700
     56 H25         6.2200   -1.8440    0.5650 hc        1 38M      0.042700
     57 H25A        7.4970   -2.2350    1.7850 hc        1 38M      0.042700
     58 H27         4.9910   -4.0150    4.1140 h1        1 38M      0.076700
     59 H27A        6.7480   -3.5330    3.9790 h1        1 38M      0.076700
     60 H7          6.2780   -4.2770    0.4720 h1        1 38M      0.026700
     61 H7A         7.1770   -4.6300    2.0160 h1        1 38M      0.026700
     62 H18         3.6540   -2.1230    2.2600 hc        1 38M      0.044700
     63 H18A        4.1000   -2.7920    0.6390 hc        1 38M      0.044700
     64 H19         3.1470   -4.3400    3.1400 hc        1 38M      0.059700
     65 H19A        2.2870   -4.1370    1.5620 hc        1 38M      0.059700
     66 HN1         5.7610   -6.4240    1.4140 hn        1 38M      0.361800
     67 H35         3.4240   -6.4040    1.8750 h1        1 38M      0.025700
     68 H35A        3.8380   -5.4950    0.3520 h1        1 38M      0.025700
     69 H10         0.1380   -1.6790    6.7210 ha        1 38M      0.166000
     70 H11        -0.7810   -1.5320    9.0150 ha        1 38M      0.144000
     71 H12        -2.1430    0.4340    9.7230 ha        1 38M      0.150000
     72 H14        -1.6960    2.1630    5.7700 ha        1 38M      0.168000
@<TRIPOS>BOND
     1    1    2 ar  
     2    1    6 ar  
     3    1   38 1   
     4    2    3 ar  
     5    2   39 1   
     6    3    4 ar  
     7    3   40 1   
     8    4    5 ar  
     9    4   10 1   
    10    5    6 ar  
    11    5    7 1   
    12    6   41 1   
    13    7    8 2   
    14    7    9 1   
    15    9   11 1   
    16    9   31 1   
    17   10   11 2   
    18   11   12 1   
    19   12   13 1   
    20   13   14 1   
    21   13   15 1   
    22   13   42 1   
    23   14   16 2   
    24   14   17 1   
    25   15   18 1   
    26   15   43 1   
    27   15   44 1   
    28   17   21 1   
    29   17   25 1   
    30   18   19 1   
    31   18   45 1   
    32   18   46 1   
    33   19   20 1   
    34   19   47 1   
    35   19   48 1   
    36   20   49 1   
    37   20   50 1   
    38   20   51 1   
    39   21   22 1   
    40   21   52 1   
    41   21   53 1   
    42   22   23 1   
    43   22   54 1   
    44   22   55 1   
    45   23   24 1   
    46   23   56 1   
    47   23   57 1   
    48   24   25 1   
    49   24   26 1   
    50   24   27 1   
    51   25   58 1   
    52   25   59 1   
    53   26   29 1   
    54   26   60 1   
    55   26   61 1   
    56   27   28 1   
    57   27   62 1   
    58   27   63 1   
    59   28   30 1   
    60   28   64 1   
    61   28   65 1   
    62   29   30 1   
    63   29   66 1   
    64   30   67 1   
    65   30   68 1   
    66   31   32 ar  
    67   31   36 ar  
    68   32   33 ar  
    69   32   69 1   
    70   33   34 ar  
    71   33   70 1   
    72   34   35 ar  
    73   34   71 1   
    74   35   36 ar  
    75   35   37 1   
    76   36   72 1   
@<TRIPOS>SUBSTRUCTURE
     1 38M         1 TEMP              0 ****  ****    0 ROOT
