@<TRIPOS>MOLECULE
38O
   51    52     1     0     0
SMALL
bcc


@<TRIPOS>ATOM
      1 C1          0.6450    2.0920   -0.5740 c1        1 38O     -0.039000
      2 C3          1.8170   -0.7160    0.8960 c3        1 38O     -0.097000
      3 C4          3.2840   -0.5390    1.3360 c3        1 38O     -0.042000
      4 C6         -1.4230   -1.4740    2.3820 c2        1 38O     -0.307000
      5 C7         -0.2900   -1.6280    1.6780 c2        1 38O     -0.057000
      6 C8          5.0360   -1.6690    2.6380 ca        1 38O      0.110000
      7 C12         8.4180   -3.0560    5.3860 c2        1 38O     -0.005000
      8 N13         8.6300   -1.8210    4.7570 na        1 38O     -0.153000
      9 C15         7.1540   -0.4990    3.1310 ca        1 38O     -0.085000
     10 C16         5.9420   -0.5600    2.4840 ca        1 38O     -0.139000
     11 C17         9.3460   -3.7100    6.3030 c2        1 38O     -0.039000
     12 C18         9.0900   -4.9370    6.8910 c2        1 38O      0.015000
     13 C21         9.8040   -6.8620    8.4880 c3        1 38O      0.102000
     14 C23         8.8880   -6.6350    9.6780 c2        1 38O      0.148000
     15 C24         7.5770   -6.5580    9.5950 c1        1 38O     -0.611000
     16 N2          0.9510   -1.0640    2.0030 n7        1 38O     -0.300000
     17 N5          3.8680   -1.7360    1.8910 nu        1 38O     -0.292000
     18 C9          5.3760   -2.7340    3.4920 ca        1 38O     -0.195000
     19 C10         6.6110   -2.6970    4.1550 ca        1 38O      0.005000
     20 N11         7.2060   -3.5950    5.0320 n2        1 38O     -0.242000
     21 C14         7.5070   -1.5670    3.9740 ca        1 38O     -0.061000
     22 N19         7.8640   -5.6830    6.6150 nz        1 38O     -0.057000
     23 C20        10.0390   -5.5410    7.7960 c2        1 38O     -0.276000
     24 F22         9.3100   -7.8310    7.6230 f         1 38O     -0.149000
     25 C25         6.2940   -6.5050    9.6440 c1        1 38O      0.290000
     26 C26        11.2280   -4.8820    8.0400 c2        1 38O      0.087000
     27 N27        11.5140   -3.6750    7.4830 ns        1 38O     -0.256000
     28 C28        10.6200   -3.0200    6.6110 c2        1 38O      0.336000
     29 H1          0.8880   -0.3270    2.6780 hn        1 38O      0.179000
     30 H2          0.1550    2.9380   -0.0680 ha        1 38O      0.024500
     31 H3          0.4200    2.0760   -1.6510 ha        1 38O      0.024500
     32 H4          1.5090    0.2590    0.4000 h1        1 38O      0.115500
     33 H5          1.7600   -1.5310    0.1200 h1        1 38O      0.115500
     34 H6          3.8750   -0.2550    0.4180 h1        1 38O      0.085500
     35 H7          3.3500    0.3180    2.0680 h1        1 38O      0.085500
     36 H8          3.2140   -2.4320    2.1850 hn        1 38O      0.228000
     37 H9         -1.5160   -0.8120    3.2510 ha        1 38O      0.121500
     38 H10        -2.3260   -2.0350    2.1190 ha        1 38O      0.121500
     39 H11        -0.2570   -2.3050    0.8010 h4        1 38O      0.135000
     40 H12         9.4300   -1.2410    4.8590 hn        1 38O      0.295000
     41 H13         7.8280    0.3590    2.9930 ha        1 38O      0.154000
     42 H14         5.6600    0.2690    1.8140 ha        1 38O      0.154000
     43 H15        10.7950   -7.2550    8.8780 h1        1 38O      0.140000
     44 H16         9.4200   -6.5220   10.6440 ha        1 38O      0.163000
     45 H18         4.7000   -3.5880    3.6400 ha        1 38O      0.153000
     46 H20         7.2180   -5.1260    5.9870 hn        1 38O      0.283000
     47 H21         8.1130   -6.5670    6.1540 hn        1 38O      0.283000
     48 H22        12.0030   -5.3120    8.7080 h4        1 38O      0.188000
     49 H23        12.3850   -3.2170    7.6810 hn        1 38O      0.285000
     50 O29        10.9750   -1.9160    6.1680 o         1 38O     -0.309000
     51 H193        7.3860   -5.9000    7.5040 hn        1 38O      0.283000
@<TRIPOS>BOND
     1    1   30 1   
     2    1   31 1   
     3    2    3 1   
     4    2   16 1   
     5    2   32 1   
     6    2   33 1   
     7    3   17 1   
     8    3   34 1   
     9    3   35 1   
    10    4    5 1   
    11    4   37 1   
    12    4   38 1   
    13    5   16 1   
    14    5   39 1   
    15    6   10 1   
    16    6   17 1   
    17    6   18 1   
    18    7    8 1   
    19    7   11 1   
    20    7   20 1   
    21    8   21 1   
    22    8   40 1   
    23    9   10 1   
    24    9   21 1   
    25    9   41 1   
    26   10   42 1   
    27   11   12 1   
    28   11   28 1   
    29   12   22 1   
    30   12   23 1   
    31   13   14 1   
    32   13   23 1   
    33   13   24 1   
    34   13   43 1   
    35   14   15 1   
    36   14   44 1   
    37   15   25 1   
    38   16   29 1   
    39   17   36 1   
    40   18   19 1   
    41   18   45 1   
    42   19   20 1   
    43   19   21 1   
    44   22   46 1   
    45   22   47 1   
    46   22   51 1   
    47   23   26 1   
    48   26   27 1   
    49   26   48 1   
    50   27   28 1   
    51   27   49 1   
    52   28   50 1   
@<TRIPOS>SUBSTRUCTURE
     1 38O         1 TEMP              0 ****  ****    0 ROOT
