@<TRIPOS>MOLECULE
38O
   50    52     1     0     0
SMALL
bcc


@<TRIPOS>ATOM
      1 C1          0.9570   -2.3440    2.4660 c3        1 38O     -0.237000
      2 C3          4.4030   -0.1070   -0.4540 c3        1 38O     -0.204000
      3 C4          3.4930    0.4480    0.6290 c3        1 38O     -0.046000
      4 C6          2.1710   -0.1370    2.5860 c3        1 38O     -0.029000
      5 C7          0.9410   -0.8950    2.0810 c2        1 38O     -0.010000
      6 C8          4.5360   -0.6450    2.5410 c2        1 38O     -0.090000
      7 C12         7.4170   -2.8110    5.3650 c2        1 38O      0.048000
      8 N13         7.9690   -1.6920    4.6860 na        1 38O     -0.170000
      9 C15         6.9280    0.0100    3.0110 c3        1 38O     -0.139000
     10 C16         5.6490    0.2310    2.3500 c1        1 38O     -0.120000
     11 C17         8.1880   -3.6100    6.3100 c2        1 38O     -0.269000
     12 C18         7.9160   -4.9720    6.5300 c2        1 38O      0.255000
     13 C21         8.4160   -7.1250    7.8340 c3        1 38O      0.105000
     14 C23         9.3250   -7.6930    8.9020 c2        1 38O      0.143000
     15 C24        10.5960   -7.9660    8.7020 c1        1 38O     -0.579000
     16 N2          0.0360   -0.2770    1.4130 n2        1 38O     -0.236000
     17 N5          3.3450   -0.4400    1.7780 n3        1 38O     -0.223000
     18 C9          4.5990   -1.7280    3.4060 c2        1 38O      0.018000
     19 C10         5.8150   -1.9880    4.1020 c2        1 38O     -0.143000
     20 N11         6.1150   -3.0050    5.0150 n2        1 38O     -0.160000
     21 C14         6.9610   -1.1550    3.9120 c2        1 38O     -0.074000
     22 N19         7.0460   -5.6870    5.7590 nh        1 38O     -0.339000
     23 C20         8.6500   -5.6580    7.5900 c2        1 38O     -0.286000
     24 F22         7.0880   -7.3820    8.1700 f         1 38O     -0.164000
     25 C25        11.8270   -8.2730    8.5260 c1        1 38O      0.241000
     26 C26         9.5710   -4.9570    8.3330 c2        1 38O      0.080000
     27 N27         9.8690   -3.6530    8.0900 n         1 38O     -0.278000
     28 C28         9.2290   -2.9270    7.0580 c2        1 38O      0.361000
     29 H1         -0.7450   -0.8340    1.1330 hn        1 38O      0.136000
     30 H2          1.8640   -2.8330    2.0300 hc        1 38O      0.091333
     31 H3          1.0040   -2.4400    3.5780 hc        1 38O      0.091333
     32 H4          4.0580   -1.1090   -0.8030 hc        1 38O      0.075000
     33 H5          5.4520   -0.2000   -0.0780 hc        1 38O      0.075000
     34 H6          4.3960    0.5980   -1.3200 hc        1 38O      0.075000
     35 H7          3.8900    1.4570    0.9470 h1        1 38O      0.087500
     36 H8          2.4630    0.5960    0.1950 h1        1 38O      0.087500
     37 H9          2.3400   -0.4610    3.6530 h1        1 38O      0.091500
     38 H10         1.9600    0.9730    2.5990 h1        1 38O      0.091500
     39 H11         0.0520   -2.8890    2.1020 hc        1 38O      0.091333
     40 H12         8.8490   -1.2860    4.8980 hn        1 38O      0.282000
     41 H13         7.1760    0.9580    3.5770 hc        1 38O      0.161000
     42 H14         7.7060   -0.0880    2.1970 hc        1 38O      0.161000
     43 H15         8.6340   -7.6860    6.8690 h1        1 38O      0.135000
     44 H16         8.8280   -7.8990    9.8720 ha        1 38O      0.149000
     45 H18         3.7370   -2.3930    3.5840 ha        1 38O      0.147000
     46 H20         6.4860   -5.2200    5.0820 hn        1 38O      0.243000
     47 H21         6.6950   -6.5480    6.1060 hn        1 38O      0.243000
     48 H22        10.1310   -5.4330    9.1640 h4        1 38O      0.163000
     49 H23        10.5580   -3.1810    8.6360 hn        1 38O      0.259000
     50 O29         9.6320   -1.7550    6.8880 o         1 38O     -0.393000
@<TRIPOS>BOND
     1    1    5 1   
     2    1   30 1   
     3    1   31 1   
     4    1   39 1   
     5    2    3 1   
     6    2   32 1   
     7    2   33 1   
     8    2   34 1   
     9    3   17 1   
    10    3   35 1   
    11    3   36 1   
    12    4    5 1   
    13    4   17 1   
    14    4   37 1   
    15    4   38 1   
    16    5   16 1   
    17    6   10 1   
    18    6   17 1   
    19    6   18 1   
    20    7    8 1   
    21    7   11 1   
    22    7   20 1   
    23    8   21 1   
    24    8   40 1   
    25    9   10 1   
    26    9   21 1   
    27    9   41 1   
    28    9   42 1   
    29   11   12 1   
    30   11   28 1   
    31   12   22 1   
    32   12   23 1   
    33   13   14 1   
    34   13   23 1   
    35   13   24 1   
    36   13   43 1   
    37   14   15 1   
    38   14   44 1   
    39   15   25 1   
    40   16   29 1   
    41   18   19 1   
    42   18   45 1   
    43   19   20 1   
    44   19   21 1   
    45   22   46 1   
    46   22   47 1   
    47   23   26 1   
    48   26   27 1   
    49   26   48 1   
    50   27   28 1   
    51   27   49 1   
    52   28   50 1   
@<TRIPOS>SUBSTRUCTURE
     1 38O         1 TEMP              0 ****  ****    0 ROOT
