@<TRIPOS>MOLECULE
38O
   51    52     1     0     0
SMALL
bcc


@<TRIPOS>ATOM
      1 C1          0.5650   -2.0140   -0.6100 c1        1 38O     -0.056000
      2 C3          2.7580   -0.3680   -0.6600 c3        1 38O     -0.224000
      3 C4          3.6950   -0.0970    0.5090 c3        1 38O     -0.049000
      4 C6          2.2750   -1.2630    2.1490 c3        1 38O     -0.058000
      5 C7          1.6650   -0.1540    2.9810 c2        1 38O     -0.091000
      6 C8          4.6660   -1.0680    2.5200 ca        1 38O      0.089000
      7 C12         7.5940   -2.7480    5.6040 c2        1 38O     -0.005000
      8 N13         7.8880   -1.4550    5.1480 na        1 38O     -0.154000
      9 C15         6.6650    0.0380    3.4620 ca        1 38O     -0.107000
     10 C16         5.5650    0.0470    2.6330 ca        1 38O     -0.106000
     11 C17         8.3770   -3.5020    6.5780 c2        1 38O     -0.041000
     12 C18         8.0590   -4.7900    6.9700 c2        1 38O      0.004000
     13 C21         8.5380   -6.9290    8.3100 c3        1 38O      0.096000
     14 C23         9.4710   -7.4970    9.3600 c2        1 38O      0.129000
     15 C24        10.7100   -7.8360    9.0940 c1        1 38O     -0.586000
     16 N2          2.2950    0.8950    3.3460 n2        1 38O     -0.250000
     17 N5          3.5960   -1.0690    1.5890 nh        1 38O     -0.232000
     18 C9          4.8860   -2.2170    3.2910 ca        1 38O     -0.135000
     19 C10         5.9970   -2.2520    4.1510 ca        1 38O     -0.023000
     20 N11         6.4580   -3.2410    5.0120 n2        1 38O     -0.243000
     21 C14         6.8980   -1.1140    4.2310 ca        1 38O     -0.034000
     22 N19         6.8900   -5.4870    6.4320 n4        1 38O     -0.055000
     23 C20         8.8590   -5.5040    7.9370 c2        1 38O     -0.269000
     24 F22         7.2160   -7.0480    8.7390 f         1 38O     -0.167000
     25 C25        11.9150   -8.2350    8.8760 c1        1 38O      0.307000
     26 C26         9.9470   -4.8520    8.4850 c2        1 38O      0.097000
     27 N27        10.2920   -3.5860    8.1280 n         1 38O     -0.254000
     28 C28         9.5640   -2.8480    7.1750 c2        1 38O      0.336000
     29 H1          1.7720    1.5480    3.8920 hn        1 38O      0.147000
     30 H2          0.9990   -2.8800   -1.1350 ha        1 38O      0.023000
     31 H3         -0.0310   -1.3870   -1.2900 ha        1 38O      0.023000
     32 H4          1.7100   -0.0760   -0.4010 hc        1 38O      0.088667
     33 H5          3.0890    0.2540   -1.5280 hc        1 38O      0.088667
     34 H6          2.7910   -1.4430   -0.9670 hc        1 38O      0.088667
     35 H7          4.7550   -0.1400    0.1240 h1        1 38O      0.086500
     36 H8          3.5010    0.9540    0.8750 h1        1 38O      0.086500
     37 H9          2.3010   -2.1800    2.8070 h1        1 38O      0.135000
     38 H10         1.5620   -1.4780    1.2880 h1        1 38O      0.135000
     39 H11         0.6020   -0.3800    3.2290 h4        1 38O      0.101000
     40 H12         8.6520   -0.8910    5.4410 hn        1 38O      0.297000
     41 H13         7.3330    0.9090    3.5300 ha        1 38O      0.155000
     42 H14         5.3580    0.9640    2.0550 ha        1 38O      0.161000
     43 H15         8.6480   -7.5740    7.3800 h1        1 38O      0.127000
     44 H16         9.0110   -7.6410   10.3590 ha        1 38O      0.167000
     45 H18         4.2200   -3.0890    3.2300 ha        1 38O      0.154000
     46 H20         6.2740   -5.7540    7.2100 hn        1 38O      0.279333
     47 H21         7.1970   -6.3320    5.9430 hn        1 38O      0.279333
     48 H22        10.6000   -5.3410    9.2420 h4        1 38O      0.199000
     49 H23        11.0950   -3.1460    8.5390 hn        1 38O      0.287000
     50 O29         9.9710   -1.7050    6.9100 o         1 38O     -0.309000
     51 H193        6.3600   -4.8570    5.7550 hn        1 38O      0.279333
@<TRIPOS>BOND
     1    1   30 1   
     2    1   31 1   
     3    2    3 1   
     4    2   32 1   
     5    2   33 1   
     6    2   34 1   
     7    3   17 1   
     8    3   35 1   
     9    3   36 1   
    10    4    5 1   
    11    4   17 1   
    12    4   37 1   
    13    4   38 1   
    14    5   16 1   
    15    5   39 1   
    16    6   10 1   
    17    6   17 1   
    18    6   18 1   
    19    7    8 1   
    20    7   11 1   
    21    7   20 1   
    22    8   21 1   
    23    8   40 1   
    24    9   10 1   
    25    9   21 1   
    26    9   41 1   
    27   10   42 1   
    28   11   12 1   
    29   11   28 1   
    30   12   22 1   
    31   12   23 1   
    32   13   14 1   
    33   13   23 1   
    34   13   24 1   
    35   13   43 1   
    36   14   15 1   
    37   14   44 1   
    38   15   25 1   
    39   16   29 1   
    40   18   19 1   
    41   18   45 1   
    42   19   20 1   
    43   19   21 1   
    44   22   46 1   
    45   22   47 1   
    46   22   51 1   
    47   23   26 1   
    48   26   27 1   
    49   26   48 1   
    50   27   28 1   
    51   27   49 1   
    52   28   50 1   
@<TRIPOS>SUBSTRUCTURE
     1 38O         1 TEMP              0 ****  ****    0 ROOT
