@<TRIPOS>MOLECULE
38P
   56    59     1     0     0
SMALL
bcc


@<TRIPOS>ATOM
      1 N1          2.0840    1.4720    0.7030 na        1 38P      0.218200
      2 N2          1.3270    2.4740    1.1780 nc        1 38P     -0.552800
      3 C3          0.0100    2.2480    1.1720 cd        1 38P      0.643900
      4 N4         -0.6840    1.1260    0.7510 nd        1 38P     -0.784000
      5 C5          0.0700    0.1140    0.2630 cc        1 38P      0.756200
      6 C6          1.5310    0.2350    0.2180 cc        1 38P     -0.283600
      7 C7          2.6030   -0.5860   -0.1980 cd        1 38P     -0.017200
      8 C8          3.8050    0.1540    0.0330 cd        1 38P     -0.211200
      9 C9          3.4610    1.4120    0.5860 cc        1 38P     -0.084100
     10 C10         5.1760   -0.3090   -0.2360 c         1 38P      0.703300
     11 O11         5.4870   -1.5200   -0.2300 o         1 38P     -0.615100
     12 N12         6.1150    0.6620   -0.5370 n         1 38P     -0.569900
     13 C13         7.5080    0.3660   -0.7140 c3        1 38P      0.087000
     14 C14         8.4210    0.9450    0.3700 c3        1 38P     -0.105400
     15 C15         9.8600    0.6210    0.0640 c3        1 38P     -0.092100
     16 C16         2.5190   -1.9340   -0.7670 c3        1 38P     -0.060900
     17 N17        -0.4870   -1.0510   -0.2360 nh        1 38P     -0.728300
     18 C18        -1.8620   -1.3700   -0.1550 ca        1 38P      0.126600
     19 C19        -2.2640   -2.6380    0.3400 ca        1 38P     -0.084300
     20 C20        -3.6230   -2.9630    0.3520 ca        1 38P     -0.124000
     21 C21        -4.5850   -2.0630   -0.0930 ca        1 38P     -0.110000
     22 C22        -4.1890   -0.8140   -0.5770 ca        1 38P     -0.133600
     23 C23        -2.8380   -0.4680   -0.6240 ca        1 38P     -0.059000
     24 C24        -5.1830    0.1740   -1.0930 c         1 38P      0.678700
     25 O25        -4.9900    0.8090   -2.1480 o         1 38P     -0.594100
     26 N26        -6.3330    0.3430   -0.3410 n         1 38P     -0.540900
     27 C27        -7.3310    1.2910   -0.6840 cx        1 38P      0.053700
     28 C28        -7.9900    2.1720    0.3600 cx        1 38P     -0.154400
     29 C29        -8.7820    1.0810   -0.2990 cx        1 38P     -0.154400
     30 C30        -1.2720   -3.6220    0.8330 c3        1 38P     -0.063800
     31 H3         -0.6260    3.0710    1.5620 h5        1 38P      0.067100
     32 H9          4.0980    2.2370    0.9100 h4        1 38P      0.187000
     33 HN12        5.8580    1.6170   -0.4730 hn        1 38P      0.305500
     34 H13         7.6420   -0.7540   -0.7460 h1        1 38P      0.062200
     35 H13A        7.8290    0.7830   -1.7130 h1        1 38P      0.062200
     36 H14         8.2900    2.0580    0.4300 hc        1 38P      0.043200
     37 H14A        8.1420    0.5210    1.3700 hc        1 38P      0.043200
     38 H15        10.0150   -0.4840    0.0230 hc        1 38P      0.036700
     39 H15A       10.1630    1.0540   -0.9200 hc        1 38P      0.036700
     40 H15B       10.5260    1.0420    0.8550 hc        1 38P      0.036700
     41 H16         1.8980   -1.9350   -1.6990 hc        1 38P      0.060700
     42 H16A        3.5420   -2.3130   -1.0260 hc        1 38P      0.060700
     43 H16B        2.0710   -2.6480   -0.0300 hc        1 38P      0.060700
     44 HN17        0.1340   -1.8240   -0.3480 hn        1 38P      0.453800
     45 H20        -3.9360   -3.9510    0.7260 ha        1 38P      0.139000
     46 H21        -5.6480   -2.3490   -0.0780 ha        1 38P      0.141000
     47 H23        -2.5540    0.5140   -1.0400 ha        1 38P      0.175000
     48 HN26       -6.4100   -0.1140    0.5360 hn        1 38P      0.311500
     49 H27        -7.1200    1.7450   -1.6830 h1        1 38P      0.122700
     50 H28        -7.7180    2.0610    1.4250 hc        1 38P      0.073950
     51 H28A       -8.1920    3.2250    0.0970 hc        1 38P      0.073950
     52 H29        -9.5570    1.3440   -1.0400 hc        1 38P      0.073950
     53 H29A       -9.0710    0.1990    0.3000 hc        1 38P      0.073950
     54 H30        -0.6340   -3.1750    1.6370 hc        1 38P      0.050367
     55 H30A       -1.7780   -4.5250    1.2570 hc        1 38P      0.050367
     56 H30B       -0.6060   -3.9630    0.0000 hc        1 38P      0.050367
@<TRIPOS>BOND
     1    1    2 1   
     2    1    6 1   
     3    1    9 1   
     4    2    3 2   
     5    3    4 1   
     6    3   31 1   
     7    4    5 2   
     8    5    6 1   
     9    5   17 1   
    10    6    7 2   
    11    7    8 1   
    12    7   16 1   
    13    8    9 2   
    14    8   10 1   
    15    9   32 1   
    16   10   11 2   
    17   10   12 1   
    18   12   13 1   
    19   12   33 1   
    20   13   14 1   
    21   13   34 1   
    22   13   35 1   
    23   14   15 1   
    24   14   36 1   
    25   14   37 1   
    26   15   38 1   
    27   15   39 1   
    28   15   40 1   
    29   16   41 1   
    30   16   42 1   
    31   16   43 1   
    32   17   18 1   
    33   17   44 1   
    34   18   19 ar  
    35   18   23 ar  
    36   19   20 ar  
    37   19   30 1   
    38   20   21 ar  
    39   20   45 1   
    40   21   22 ar  
    41   21   46 1   
    42   22   23 ar  
    43   22   24 1   
    44   23   47 1   
    45   24   25 2   
    46   24   26 1   
    47   26   27 1   
    48   26   48 1   
    49   27   28 1   
    50   27   29 1   
    51   27   49 1   
    52   28   29 1   
    53   28   50 1   
    54   28   51 1   
    55   29   52 1   
    56   29   53 1   
    57   30   54 1   
    58   30   55 1   
    59   30   56 1   
@<TRIPOS>SUBSTRUCTURE
     1 38P         1 TEMP              0 ****  ****    0 ROOT
