@<TRIPOS>MOLECULE
38P
   59    62     1     0     0
SMALL
bcc


@<TRIPOS>ATOM
      1 N1         -0.0570   -0.7690   -0.2060 na        1 38P      0.217200
      2 N2          1.1770   -1.2710   -0.3660 nc        1 38P     -0.410800
      3 C3          1.9910   -1.1940    0.6830 cd        1 38P      0.643900
      4 N4          1.7030   -0.6460    1.9480 nd        1 38P     -0.633000
      5 C5          0.4820   -0.1590    2.0990 cc        1 38P      0.586200
      6 C6         -0.5100   -0.1690    1.0370 cc        1 38P     -0.287600
      7 C7         -1.8430    0.2540    0.8540 cd        1 38P      0.039800
      8 C8         -2.2040   -0.0900   -0.4970 cd        1 38P     -0.251200
      9 C9         -1.0880   -0.7150   -1.1190 cc        1 38P     -0.004100
     10 C10        -3.5050    0.1590   -1.0880 c         1 38P      0.588300
     11 O11        -4.5030    0.5830   -0.5200 o         1 38P     -0.397100
     12 N12        -3.6400   -0.1350   -2.5640 n4        1 38P     -0.672800
     13 C13        -4.9810    0.2550   -3.1240 c3        1 38P      0.105800
     14 C14        -5.0930   -0.0570   -4.6120 c3        1 38P     -0.105400
     15 C15        -6.4610    0.3620   -5.0970 c3        1 38P     -0.104100
     16 C16        -2.6850    0.9160    1.8540 c3        1 38P     -0.096900
     17 N17         0.0880    0.4570    3.3950 n4        1 38P     -0.628100
     18 C18         0.8150   -0.0490    4.5710 ca        1 38P     -0.058400
     19 C19         0.2060   -1.0020    5.4230 ca        1 38P      0.035700
     20 C20         0.9300   -1.4400    6.5410 ca        1 38P     -0.102000
     21 C21         2.2090   -0.9640    6.8140 ca        1 38P     -0.033000
     22 C22         2.8020   -0.0180    5.9670 ca        1 38P     -0.176600
     23 C23         2.1090    0.4320    4.8320 ca        1 38P     -0.003000
     24 C24         4.1700    0.5100    6.1470 c         1 38P      0.559700
     25 O25         4.8480    1.0160    5.2630 o         1 38P     -0.388100
     26 N26         4.7880    0.4170    7.5190 n4        1 38P     -0.627800
     27 C27         5.5950    1.6100    7.8640 cx        1 38P     -0.024500
     28 C28         6.1770    1.7530    9.2580 cx        1 38P     -0.090400
     29 C29         5.0690    2.6600    8.8220 cx        1 38P     -0.090400
     30 C30        -1.1540   -1.5330    5.1780 c3        1 38P     -0.114800
     31 H3          3.0250   -1.6050    0.5630 h5        1 38P      0.135100
     32 H9         -0.9650   -1.1220   -2.1330 h4        1 38P      0.224000
     33 HN12       -2.9090    0.3720   -3.0760 hn        1 38P      0.461800
     34 H13        -5.1200    1.3600   -2.9410 hx        1 38P      0.121700
     35 H13A       -5.7720   -0.3030   -2.5430 hx        1 38P      0.121700
     36 H14        -4.3060    0.4960   -5.1910 hc        1 38P      0.068200
     37 H14A       -4.9520   -1.1550   -4.7950 hc        1 38P      0.068200
     38 H15        -7.2660   -0.1920   -4.5580 hc        1 38P      0.071367
     39 H15A       -6.5500    0.1360   -6.1900 hc        1 38P      0.071367
     40 H15B       -6.6200    1.4580   -4.9530 hc        1 38P      0.071367
     41 H16        -2.9640    0.2020    2.6730 hc        1 38P      0.086033
     42 H16A       -2.1670    1.8080    2.2910 hc        1 38P      0.086033
     43 H16B       -3.6470    1.2850    1.4030 hc        1 38P      0.086033
     44 HN17        0.2520    1.4750    3.3170 hn        1 38P      0.485300
     45 H20         0.4720   -2.1880    7.2170 ha        1 38P      0.203000
     46 H21         2.7350   -1.3730    7.6950 ha        1 38P      0.168000
     47 H23         2.6050    1.1530    4.1530 ha        1 38P      0.190000
     48 HN26        5.4200   -0.3990    7.5350 hn        1 38P      0.466800
     49 H27         6.2090    1.9250    6.9850 hx        1 38P      0.168700
     50 H28         7.2150    2.1400    9.3330 hc        1 38P      0.120700
     51 H28A        5.9760    0.9890   10.0330 hc        1 38P      0.120700
     52 H29         5.2870    3.7210    8.5810 hc        1 38P      0.120700
     53 H29A        4.0710    2.5460    9.2860 hc        1 38P      0.120700
     54 H30        -1.9230   -0.7220    5.2650 hc        1 38P      0.089700
     55 H30A       -1.2260   -2.0090    4.1670 hc        1 38P      0.089700
     56 H30B       -1.4210   -2.3210    5.9330 hc        1 38P      0.089700
     57 H122       -3.5010   -1.1410   -2.7170 hn        1 38P      0.461800
     58 H172       -0.9260    0.2890    3.5260 hn        1 38P      0.485300
     59 H262        4.0570    0.2840    8.2270 hn        1 38P      0.466800
@<TRIPOS>BOND
     1    1    2 1   
     2    1    6 1   
     3    1    9 1   
     4    2    3 2   
     5    3    4 1   
     6    3   31 1   
     7    4    5 2   
     8    5    6 1   
     9    5   17 1   
    10    6    7 2   
    11    7    8 1   
    12    7   16 1   
    13    8    9 2   
    14    8   10 1   
    15    9   32 1   
    16   10   11 2   
    17   10   12 1   
    18   12   13 1   
    19   12   33 1   
    20   12   57 1   
    21   13   14 1   
    22   13   34 1   
    23   13   35 1   
    24   14   15 1   
    25   14   36 1   
    26   14   37 1   
    27   15   38 1   
    28   15   39 1   
    29   15   40 1   
    30   16   41 1   
    31   16   42 1   
    32   16   43 1   
    33   17   18 1   
    34   17   44 1   
    35   17   58 1   
    36   18   19 ar  
    37   18   23 ar  
    38   19   20 ar  
    39   19   30 1   
    40   20   21 ar  
    41   20   45 1   
    42   21   22 ar  
    43   21   46 1   
    44   22   23 ar  
    45   22   24 1   
    46   23   47 1   
    47   24   25 2   
    48   24   26 1   
    49   26   27 1   
    50   26   48 1   
    51   26   59 1   
    52   27   28 1   
    53   27   29 1   
    54   27   49 1   
    55   28   29 1   
    56   28   50 1   
    57   28   51 1   
    58   29   52 1   
    59   29   53 1   
    60   30   54 1   
    61   30   55 1   
    62   30   56 1   
@<TRIPOS>SUBSTRUCTURE
     1 38P         1 TEMP              0 ****  ****    0 ROOT
