@<TRIPOS>MOLECULE
38P
   58    61     1     0     0
SMALL
bcc


@<TRIPOS>ATOM
      1 N1         -0.0190   -0.7990   -0.1640 na        1 38P      0.256200
      2 N2          1.2230   -1.2850   -0.3520 nc        1 38P     -0.535800
      3 C3          1.9680   -1.3990    0.7520 cd        1 38P      0.681900
      4 N4          1.6320   -1.0940    2.0620 nd        1 38P     -0.773000
      5 C5          0.3890   -0.6090    2.2650 cc        1 38P      0.762200
      6 C6         -0.5310   -0.4250    1.1290 cc        1 38P     -0.276600
      7 C7         -1.8470    0.0500    0.9590 cd        1 38P      0.038800
      8 C8         -2.1390   -0.0460   -0.4490 cd        1 38P     -0.295200
      9 C9         -0.9870   -0.5730   -1.1080 cc        1 38P     -0.059100
     10 C10        -3.3820    0.3280   -1.0590 c         1 38P      0.606300
     11 O11        -4.4010    0.7730   -0.5450 o         1 38P     -0.434100
     12 N12        -3.4390    0.1410   -2.5720 n4        1 38P     -0.677800
     13 C13        -4.7510    0.5380   -3.1690 c3        1 38P      0.102800
     14 C14        -4.7860    0.3420   -4.6800 c3        1 38P     -0.104400
     15 C15        -6.1380    0.7620   -5.2030 c3        1 38P     -0.102100
     16 C16        -2.7430    0.5520    2.0030 c3        1 38P     -0.081900
     17 N17        -0.0580   -0.2380    3.5240 nh        1 38P     -0.726300
     18 C18         0.6720   -0.4770    4.7120 ca        1 38P      0.124600
     19 C19         0.0430   -1.1110    5.8160 ca        1 38P     -0.020300
     20 C20         0.7730   -1.3060    6.9960 ca        1 38P     -0.107000
     21 C21         2.0940   -0.8930    7.1100 ca        1 38P     -0.093000
     22 C22         2.7110   -0.2500    6.0290 ca        1 38P     -0.192600
     23 C23         2.0060   -0.0420    4.8330 ca        1 38P     -0.026000
     24 C24         4.1080    0.1950    6.0470 c         1 38P      0.575700
     25 O25         4.8510    0.3650    5.0910 o         1 38P     -0.408100
     26 N26         4.7090    0.4820    7.4170 n4        1 38P     -0.639800
     27 C27         5.5810    1.6690    7.4190 cx        1 38P     -0.009500
     28 C28         6.1210    2.2190    8.7240 cx        1 38P     -0.098400
     29 C29         5.0930    2.9970    7.9630 cx        1 38P     -0.098400
     30 C30        -1.3620   -1.5730    5.7470 c3        1 38P     -0.086800
     31 H3          2.9980   -1.8020    0.6070 h5        1 38P      0.097100
     32 H9         -0.8080   -0.7920   -2.1660 h4        1 38P      0.198000
     33 HN12       -2.6920    0.7020   -2.9970 hn        1 38P      0.453800
     34 H13        -4.9340    1.6200   -2.9090 hx        1 38P      0.116700
     35 H13A       -5.5550   -0.0800   -2.6740 hx        1 38P      0.116700
     36 H14        -4.6030   -0.7350   -4.9400 hc        1 38P      0.063700
     37 H14A       -3.9860    0.9560   -5.1730 hc        1 38P      0.063700
     38 H15        -6.1690    0.6200   -6.3120 hc        1 38P      0.064700
     39 H15A       -6.9520    0.1480   -4.7470 hc        1 38P      0.064700
     40 H15B       -6.3360    1.8390   -4.9810 hc        1 38P      0.064700
     41 H16        -3.0040   -0.2660    2.7250 hc        1 38P      0.078033
     42 H16A       -3.7030    0.9370    1.5710 hc        1 38P      0.078033
     43 H16B       -2.2630    1.3960    2.5640 hc        1 38P      0.078033
     44 HN17       -1.0460   -0.1320    3.6350 hn        1 38P      0.461800
     45 H20         0.2880   -1.8130    7.8490 ha        1 38P      0.174000
     46 H21         2.6310   -1.1150    8.0450 ha        1 38P      0.138000
     47 H23         2.5180    0.4580    3.9910 ha        1 38P      0.184000
     48 HN26        5.2760   -0.3300    7.6960 hn        1 38P      0.459300
     49 H27         6.2420    1.6610    6.5180 hx        1 38P      0.163700
     50 H28         5.8400    1.7520    9.6870 hc        1 38P      0.112950
     51 H28A        7.1770    2.5580    8.7320 hc        1 38P      0.112950
     52 H29         5.3890    3.9110    7.4110 hc        1 38P      0.112950
     53 H29A        4.0720    3.0870    8.3800 hc        1 38P      0.112950
     54 H30        -2.0570   -0.7020    5.6230 hc        1 38P      0.071700
     55 H30A       -1.5070   -2.2740    4.8860 hc        1 38P      0.071700
     56 H30B       -1.6580   -2.1140    6.6810 hc        1 38P      0.071700
     57 H122       -3.2560   -0.8450   -2.7850 hn        1 38P      0.453800
     58 H262        3.9540    0.6060    8.1000 hn        1 38P      0.459300
@<TRIPOS>BOND
     1    1    2 1   
     2    1    6 1   
     3    1    9 1   
     4    2    3 2   
     5    3    4 1   
     6    3   31 1   
     7    4    5 2   
     8    5    6 1   
     9    5   17 1   
    10    6    7 2   
    11    7    8 1   
    12    7   16 1   
    13    8    9 2   
    14    8   10 1   
    15    9   32 1   
    16   10   11 2   
    17   10   12 1   
    18   12   13 1   
    19   12   33 1   
    20   12   57 1   
    21   13   14 1   
    22   13   34 1   
    23   13   35 1   
    24   14   15 1   
    25   14   36 1   
    26   14   37 1   
    27   15   38 1   
    28   15   39 1   
    29   15   40 1   
    30   16   41 1   
    31   16   42 1   
    32   16   43 1   
    33   17   18 1   
    34   17   44 1   
    35   18   19 ar  
    36   18   23 ar  
    37   19   20 ar  
    38   19   30 1   
    39   20   21 ar  
    40   20   45 1   
    41   21   22 ar  
    42   21   46 1   
    43   22   23 ar  
    44   22   24 1   
    45   23   47 1   
    46   24   25 2   
    47   24   26 1   
    48   26   27 1   
    49   26   48 1   
    50   26   58 1   
    51   27   28 1   
    52   27   29 1   
    53   27   49 1   
    54   28   29 1   
    55   28   50 1   
    56   28   51 1   
    57   29   52 1   
    58   29   53 1   
    59   30   54 1   
    60   30   55 1   
    61   30   56 1   
@<TRIPOS>SUBSTRUCTURE
     1 38P         1 TEMP              0 ****  ****    0 ROOT
