@<TRIPOS>MOLECULE
38P
   58    61     1     0     0
SMALL
bcc


@<TRIPOS>ATOM
      1 N1         -0.0120   -0.7870   -0.1690 na        1 38P      0.256200
      2 N2          1.2340   -1.2630   -0.3600 nc        1 38P     -0.535800
      3 C3          1.9790   -1.3770    0.7430 cd        1 38P      0.681900
      4 N4          1.6410   -1.0820    2.0550 nd        1 38P     -0.773000
      5 C5          0.3940   -0.6080    2.2610 cc        1 38P      0.762200
      6 C6         -0.5270   -0.4240    1.1270 cc        1 38P     -0.276600
      7 C7         -1.8470    0.0410    0.9600 cd        1 38P      0.038800
      8 C8         -2.1390   -0.0500   -0.4490 cd        1 38P     -0.295200
      9 C9         -0.9830   -0.5630   -1.1110 cc        1 38P     -0.059100
     10 C10        -3.3850    0.3190   -1.0560 c         1 38P      0.606300
     11 O11        -4.4070    0.7510   -0.5390 o         1 38P     -0.434100
     12 N12        -3.4400    0.1420   -2.5710 ny        1 38P     -0.677800
     13 C13        -4.7530    0.5380   -3.1660 c3        1 38P      0.102800
     14 C14        -4.7860    0.3520   -4.6780 c3        1 38P     -0.104400
     15 C15        -6.1390    0.7710   -5.1990 c3        1 38P     -0.102100
     16 C16        -2.7460    0.5290    2.0070 c3        1 38P     -0.081900
     17 N17        -0.0540   -0.2470    3.5220 nu        1 38P     -0.726300
     18 C18         0.6780   -0.4870    4.7080 ca        1 38P      0.124600
     19 C19         0.0560   -1.1330    5.8090 ca        1 38P     -0.020300
     20 C20         0.7870   -1.3290    6.9880 ca        1 38P     -0.107000
     21 C21         2.1050   -0.9040    7.1040 ca        1 38P     -0.093000
     22 C22         2.7160   -0.2490    6.0260 ca        1 38P     -0.192600
     23 C23         2.0090   -0.0410    4.8320 ca        1 38P     -0.026000
     24 C24         4.1090    0.2080    6.0460 c         1 38P      0.575700
     25 O25         4.8500    0.3890    5.0910 o         1 38P     -0.408100
     26 N26         4.7070    0.4940    7.4170 ny        1 38P     -0.639800
     27 C27         5.5650    1.6910    7.4250 cx        1 38P     -0.009500
     28 C28         6.1010    2.2400    8.7330 cx        1 38P     -0.098400
     29 C29         5.0620    3.0090    7.9780 cx        1 38P     -0.098400
     30 C30        -1.3460   -1.6070    5.7380 c3        1 38P     -0.086800
     31 H3          3.0120   -1.7710    0.5960 h5        1 38P      0.097100
     32 H9         -0.8020   -0.7760   -2.1700 h4        1 38P      0.198000
     33 HN12       -3.2530   -0.8420   -2.7910 hn        1 38P      0.453800
     34 H13        -4.9400    1.6180   -2.8980 hx        1 38P      0.116700
     35 H13A       -5.5550   -0.0860   -2.6750 hx        1 38P      0.116700
     36 H14        -3.9880    0.9720   -5.1670 hc        1 38P      0.063700
     37 H14A       -4.5990   -0.7220   -4.9450 hc        1 38P      0.063700
     38 H15        -6.1680    0.6370   -6.3090 hc        1 38P      0.064700
     39 H15A       -6.3410    1.8460   -4.9700 hc        1 38P      0.064700
     40 H15B       -6.9520    0.1510   -4.7480 hc        1 38P      0.064700
     41 H16        -3.0010   -0.2940    2.7240 hc        1 38P      0.078033
     42 H16A       -2.2720    1.3730    2.5730 hc        1 38P      0.078033
     43 H16B       -3.7090    0.9100    1.5770 hc        1 38P      0.078033
     44 HN17       -1.0430   -0.1510    3.6340 hn        1 38P      0.461800
     45 H20         0.3080   -1.8450    7.8380 ha        1 38P      0.174000
     46 H21         2.6450   -1.1270    8.0370 ha        1 38P      0.138000
     47 H23         2.5150    0.4690    3.9920 ha        1 38P      0.184000
     48 HN26        3.9510    0.6050    8.1010 hn        1 38P      0.459300
     49 H27         6.2250    1.6960    6.5240 hx        1 38P      0.163700
     50 H28         7.1520    2.5910    8.7420 hc        1 38P      0.112950
     51 H28A        5.8250    1.7630    9.6930 hc        1 38P      0.112950
     52 H29         4.0410    3.0860    8.3960 hc        1 38P      0.112950
     53 H29A        5.3480    3.9300    7.4310 hc        1 38P      0.112950
     54 H30        -1.4850   -2.3050    4.8730 hc        1 38P      0.071700
     55 H30A       -2.0480   -0.7430    5.6200 hc        1 38P      0.071700
     56 H30B       -1.6360   -2.1570    6.6690 hc        1 38P      0.071700
     57 H122       -2.6950    0.7080   -2.9910 hn        1 38P      0.453800
     58 H262        5.2840   -0.3130    7.6910 hn        1 38P      0.459300
@<TRIPOS>BOND
     1    1    2 1   
     2    1    6 1   
     3    1    9 1   
     4    2    3 2   
     5    3    4 1   
     6    3   31 1   
     7    4    5 2   
     8    5    6 1   
     9    5   17 1   
    10    6    7 2   
    11    7    8 1   
    12    7   16 1   
    13    8    9 2   
    14    8   10 1   
    15    9   32 1   
    16   10   11 2   
    17   10   12 1   
    18   12   13 1   
    19   12   33 1   
    20   12   57 1   
    21   13   14 1   
    22   13   34 1   
    23   13   35 1   
    24   14   15 1   
    25   14   36 1   
    26   14   37 1   
    27   15   38 1   
    28   15   39 1   
    29   15   40 1   
    30   16   41 1   
    31   16   42 1   
    32   16   43 1   
    33   17   18 1   
    34   17   44 1   
    35   18   19 ar  
    36   18   23 ar  
    37   19   20 ar  
    38   19   30 1   
    39   20   21 ar  
    40   20   45 1   
    41   21   22 ar  
    42   21   46 1   
    43   22   23 ar  
    44   22   24 1   
    45   23   47 1   
    46   24   25 2   
    47   24   26 1   
    48   26   27 1   
    49   26   48 1   
    50   26   58 1   
    51   27   28 1   
    52   27   29 1   
    53   27   49 1   
    54   28   29 1   
    55   28   50 1   
    56   28   51 1   
    57   29   52 1   
    58   29   53 1   
    59   30   54 1   
    60   30   55 1   
    61   30   56 1   
@<TRIPOS>SUBSTRUCTURE
     1 38P         1 TEMP              0 ****  ****    0 ROOT
