@<TRIPOS>MOLECULE
38Q
   52    55     1     0     0
SMALL
bcc


@<TRIPOS>ATOM
      1 O19        -0.3030   -2.7980   -3.9620 oh        1 38Q     -0.577100
      2 C18        -0.2840   -2.0190   -2.8450 c         1 38Q      0.639700
      3 O20        -1.3280   -2.0590   -2.1910 o         1 38Q     -0.496000
      4 C14         0.9230   -1.2340   -2.5070 ca        1 38Q     -0.133600
      5 C15         1.2680   -1.0630   -1.1640 ca        1 38Q     -0.096000
      6 C16         2.4120   -0.3350   -0.8400 ca        1 38Q     -0.112000
      7 C17         3.2120    0.2160   -1.8340 ca        1 38Q     -0.147000
      8 C13         1.6970   -0.6610   -3.5180 ca        1 38Q     -0.145000
      9 C12         2.8690    0.0510   -3.1980 ca        1 38Q      0.119600
     10 N11         3.7490    0.5610   -4.1800 nh        1 38Q     -0.626000
     11 C10         3.4260    0.5260   -5.5510 ca        1 38Q      0.202600
     12 C9          3.3010   -0.6830   -6.2300 ca        1 38Q     -0.291900
     13 C21         3.4030   -2.0140   -5.5690 c         1 38Q      0.689700
     14 N22         4.6020   -2.3530   -5.0050 n         1 38Q     -0.647000
     15 O33         2.4440   -2.8190   -5.5620 o         1 38Q     -0.638100
     16 C5          3.3130    1.7460   -6.3220 ca        1 38Q     -0.177300
     17 C6          3.1010    1.6390   -7.7310 ca        1 38Q      0.421600
     18 N7          2.9640    0.4180   -8.3700 nb        1 38Q     -0.663000
     19 C8          3.0480   -0.6720   -7.6390 ca        1 38Q      0.462200
     20 C4          3.3900    3.0400   -5.7450 ca        1 38Q     -0.119000
     21 C3          3.2960    4.1700   -6.5180 ca        1 38Q     -0.101000
     22 C2          3.1160    4.0780   -7.9230 cp        1 38Q      0.018000
     23 C1          3.0130    2.8320   -8.5130 ca        1 38Q     -0.170300
     24 C23         3.0560    5.2790   -8.7380 cp        1 38Q     -0.336600
     25 C24         3.6880    5.3250  -10.0000 ca        1 38Q      0.492200
     26 N25         3.6710    6.3950  -10.8120 nb        1 38Q     -0.769000
     27 C26         2.9780    7.4870  -10.3370 ca        1 38Q      0.887300
     28 O31         2.8860    8.6470  -11.0750 os        1 38Q     -0.411100
     29 C32         3.5240    8.6540  -12.3560 c3        1 38Q      0.123700
     30 N27         2.3170    7.5870   -9.1360 nb        1 38Q     -0.765000
     31 C28         2.3720    6.4760   -8.3550 ca        1 38Q      0.698600
     32 O29         1.7520    6.4610   -7.1310 os        1 38Q     -0.439100
     33 C30         0.9730    7.6030   -6.7560 c3        1 38Q      0.122700
     34 H2          0.6320   -1.4980   -0.3770 ha        1 38Q      0.161000
     35 H3          2.6880   -0.1940    0.2170 ha        1 38Q      0.143000
     36 H4          4.1140    0.7800   -1.5510 ha        1 38Q      0.138000
     37 H5          1.3800   -0.7770   -4.5700 ha        1 38Q      0.162000
     38 H6          4.1880    1.4170   -3.8960 hn        1 38Q      0.418800
     39 H7          5.3270   -1.6870   -4.9200 hn        1 38Q      0.318500
     40 H8          0.5600   -2.7900   -4.4090 ho        1 38Q      0.457000
     41 H9          2.9130   -1.6390   -8.1630 h4        1 38Q      0.044100
     42 H10         3.5100    3.1610   -4.6580 ha        1 38Q      0.129000
     43 H11         3.3460    5.1690   -6.0540 ha        1 38Q      0.153000
     44 H12         2.8470    2.7390   -9.5990 ha        1 38Q      0.157000
     45 H13         4.2450    4.4470  -10.3800 h4        1 38Q      0.039100
     46 H14         3.0800    7.8780  -13.0230 h1        1 38Q      0.057367
     47 H15         4.6250    8.5040  -12.2500 h1        1 38Q      0.057367
     48 H16         3.2940    9.6850  -12.7310 h1        1 38Q      0.057367
     49 H17         1.6220    8.5070   -6.6710 h1        1 38Q      0.058033
     50 H18         0.5670    7.3020   -5.7560 h1        1 38Q      0.058033
     51 H19         0.1490    7.7740   -7.4880 h1        1 38Q      0.058033
     52 H223        4.6880   -3.2160   -4.5270 hn        1 38Q      0.318500
@<TRIPOS>BOND
     1    1    2 1   
     2    1   40 1   
     3    2    3 2   
     4    2    4 1   
     5    4    5 ar  
     6    4    8 ar  
     7    5    6 ar  
     8    5   34 1   
     9    6    7 ar  
    10    6   35 1   
    11    7    9 ar  
    12    7   36 1   
    13    8    9 ar  
    14    8   37 1   
    15    9   10 1   
    16   10   11 1   
    17   10   38 1   
    18   11   12 ar  
    19   11   16 ar  
    20   12   13 1   
    21   12   19 ar  
    22   13   14 1   
    23   13   15 2   
    24   14   39 1   
    25   14   52 1   
    26   16   17 ar  
    27   16   20 ar  
    28   17   18 ar  
    29   17   23 ar  
    30   18   19 ar  
    31   19   41 1   
    32   20   21 ar  
    33   20   42 1   
    34   21   22 ar  
    35   21   43 1   
    36   22   23 ar  
    37   22   24 1   
    38   23   44 1   
    39   24   25 ar  
    40   24   31 ar  
    41   25   26 ar  
    42   25   45 1   
    43   26   27 ar  
    44   27   28 1   
    45   27   30 ar  
    46   28   29 1   
    47   29   46 1   
    48   29   47 1   
    49   29   48 1   
    50   30   31 ar  
    51   31   32 1   
    52   32   33 1   
    53   33   49 1   
    54   33   50 1   
    55   33   51 1   
@<TRIPOS>SUBSTRUCTURE
     1 38Q         1 TEMP              0 ****  ****    0 ROOT
