@<TRIPOS>MOLECULE
38Q
   52    55     1     0     0
SMALL
bcc


@<TRIPOS>ATOM
      1 O19        -1.3890   -2.1920   -2.3990 o         1 38Q     -0.496000
      2 C18        -0.3100   -2.1150   -2.9900 c         1 38Q      0.639700
      3 O20        -0.2340   -2.9000   -4.1000 oh        1 38Q     -0.577100
      4 C14         0.8430   -1.2810   -2.5880 ca        1 38Q     -0.133600
      5 C15         1.1010   -1.0900   -1.2280 ca        1 38Q     -0.096000
      6 C16         2.1940   -0.3150   -0.8420 ca        1 38Q     -0.112000
      7 C17         3.0290    0.2610   -1.7920 ca        1 38Q     -0.147000
      8 C13         1.6520   -0.6840   -3.5560 ca        1 38Q     -0.145000
      9 C12         2.7750    0.0750   -3.1720 ca        1 38Q      0.119600
     10 N11         3.6920    0.6140   -4.1040 nu        1 38Q     -0.626000
     11 C10         3.4520    0.5580   -5.4920 ca        1 38Q      0.202600
     12 C9          3.4140   -0.6580   -6.1680 ca        1 38Q     -0.291900
     13 C21         3.5280   -1.9800   -5.4920 c         1 38Q      0.689700
     14 N22         4.7040   -2.2690   -4.8550 nt        1 38Q     -0.647000
     15 O33         2.6030   -2.8220   -5.5360 o         1 38Q     -0.638100
     16 C5          3.3380    1.7700   -6.2770 ca        1 38Q     -0.177300
     17 C6          3.2150    1.6460   -7.6960 ca        1 38Q      0.421600
     18 N7          3.1630    0.4180   -8.3330 nb        1 38Q     -0.663000
     19 C8          3.2460   -0.6640   -7.5900 ca        1 38Q      0.462200
     20 C4          3.3300    3.0680   -5.7070 ca        1 38Q     -0.119000
     21 C3          3.2380    4.1900   -6.4920 ca        1 38Q     -0.101000
     22 C2          3.1460    4.0830   -7.9050 cp        1 38Q      0.018000
     23 C1          3.1260    2.8310   -8.4900 ca        1 38Q     -0.170300
     24 C23         3.0880    5.2770   -8.7310 cp        1 38Q     -0.336600
     25 C24         3.7920    5.3410   -9.9540 ca        1 38Q      0.492200
     26 N25         3.7820    6.4050  -10.7740 nb        1 38Q     -0.769000
     27 C26         3.0200    7.4710  -10.3490 ca        1 38Q      0.887300
     28 O31         2.9280    8.6230  -11.1000 os        1 38Q     -0.411100
     29 C32         3.6400    8.6490  -12.3410 c3        1 38Q      0.123700
     30 N27         2.2850    7.5520   -9.1900 nb        1 38Q     -0.765000
     31 C28         2.3360    6.4470   -8.3990 ca        1 38Q      0.698600
     32 O29         1.6450    6.4150   -7.2140 os        1 38Q     -0.439100
     33 C30         0.8010    7.5270   -6.8940 c3        1 38Q      0.122700
     34 H2          0.4360   -1.5450   -0.4770 ha        1 38Q      0.161000
     35 H3          2.4000   -0.1580    0.2280 ha        1 38Q      0.143000
     36 H4          3.8910    0.8620   -1.4600 ha        1 38Q      0.138000
     37 H5          1.4040   -0.8180   -4.6230 ha        1 38Q      0.162000
     38 H6          4.0800    1.4870   -3.8020 hn        1 38Q      0.418800
     39 H7          0.6540   -2.8610   -4.4960 ho        1 38Q      0.457000
     40 H8          4.7950   -3.1260   -4.3670 hn        1 38Q      0.318500
     41 H9          3.1790   -1.6390   -8.1140 h4        1 38Q      0.044100
     42 H10         3.3800    3.2000   -4.6150 ha        1 38Q      0.129000
     43 H11         3.2220    5.1920   -6.0340 ha        1 38Q      0.153000
     44 H12         3.0300    2.7260   -9.5840 ha        1 38Q      0.157000
     45 H13         4.4050    4.4830  -10.2930 h4        1 38Q      0.039100
     46 H14         3.2670    7.8520  -13.0270 h1        1 38Q      0.057367
     47 H15         4.7370    8.5420  -12.1670 h1        1 38Q      0.057367
     48 H16         3.3930    9.6680  -12.7360 h1        1 38Q      0.057367
     49 H17         0.0160    7.6610   -7.6750 h1        1 38Q      0.058033
     50 H18         0.3480    7.2160   -5.9180 h1        1 38Q      0.058033
     51 H19         1.4080    8.4560   -6.7770 h1        1 38Q      0.058033
     52 H223        5.3960   -1.5750   -4.7330 hn        1 38Q      0.318500
@<TRIPOS>BOND
     1    1    2 2   
     2    2    3 1   
     3    2    4 1   
     4    3   39 1   
     5    4    5 ar  
     6    4    8 ar  
     7    5    6 ar  
     8    5   34 1   
     9    6    7 ar  
    10    6   35 1   
    11    7    9 ar  
    12    7   36 1   
    13    8    9 ar  
    14    8   37 1   
    15    9   10 1   
    16   10   11 1   
    17   10   38 1   
    18   11   12 ar  
    19   11   16 ar  
    20   12   13 1   
    21   12   19 ar  
    22   13   14 1   
    23   13   15 2   
    24   14   40 1   
    25   14   52 1   
    26   16   17 ar  
    27   16   20 ar  
    28   17   18 ar  
    29   17   23 ar  
    30   18   19 ar  
    31   19   41 1   
    32   20   21 ar  
    33   20   42 1   
    34   21   22 ar  
    35   21   43 1   
    36   22   23 ar  
    37   22   24 1   
    38   23   44 1   
    39   24   25 ar  
    40   24   31 ar  
    41   25   26 ar  
    42   25   45 1   
    43   26   27 ar  
    44   27   28 1   
    45   27   30 ar  
    46   28   29 1   
    47   29   46 1   
    48   29   47 1   
    49   29   48 1   
    50   30   31 ar  
    51   31   32 1   
    52   32   33 1   
    53   33   49 1   
    54   33   50 1   
    55   33   51 1   
@<TRIPOS>SUBSTRUCTURE
     1 38Q         1 TEMP              0 ****  ****    0 ROOT
