@<TRIPOS>MOLECULE
38R
   48    51     1     0     0
SMALL
bcc


@<TRIPOS>ATOM
      1 C4         -1.4150   -2.4330   -0.3990 ca        1 38R      0.705200
      2 C5         -0.8360   -3.7110   -0.6780 ca        1 38R     -0.461600
      3 C6          0.5590   -3.7650   -0.7510 ca        1 38R      0.483200
      4 N1          1.3660   -2.7070   -0.5770 nb        1 38R     -0.755000
      5 N3         -0.6410   -1.3280   -0.1960 nb        1 38R     -0.783000
      6 C1U        -5.0480    2.7740   -0.9710 c3        1 38R     -0.075400
      7 C1T        -4.5470    2.3490    0.4140 c3        1 38R     -0.094000
      8 C1R        -4.2920    0.8890    0.4880 cc        1 38R      0.323600
      9 C1S        -3.3660    0.1540   -0.3500 cc        1 38R     -0.246300
     10 N1Q        -4.9080    0.0390    1.3610 nd        1 38R     -0.510800
     11 N1P        -4.3790   -1.1690    1.1830 na        1 38R     -0.038600
     12 C1H        -3.4640   -1.1820    0.0850 cd        1 38R      0.076300
     13 N1G        -2.8180   -2.3250   -0.3970 nh        1 38R     -0.698300
     14 C1Y        -3.3640    4.4000   -0.2190 c3        1 38R     -0.079900
     15 C2          0.7310   -1.5000   -0.3160 ca        1 38R      0.897900
     16 N1I         1.4970   -0.3200   -0.2030 nh        1 38R     -0.709300
     17 C1J         2.8820   -0.3470    0.0770 ca        1 38R      0.141600
     18 C1K         3.7970   -0.9900   -0.7810 ca        1 38R     -0.135000
     19 C1L         5.1620   -0.9310   -0.5160 ca        1 38R     -0.103500
     20 C1O         3.3800    0.3620    1.1950 ca        1 38R     -0.135000
     21 C1N         4.7470    0.4180    1.4390 ca        1 38R     -0.103500
     22 C1M         5.6490   -0.2310    0.5910 ca        1 38R     -0.104300
     23 C1V         7.1130   -0.1920    0.8760 c3        1 38R      0.028000
     24 C01        -4.4660    4.1550   -1.2420 c3        1 38R     -0.079900
     25 C1Z         7.7490    0.9810    0.3110 c1        1 38R      0.212700
     26 C03        -3.2770    3.1670    0.6700 c3        1 38R     -0.075400
     27 N1A         8.2670    1.9190   -0.1400 n1        1 38R     -0.371800
     28 H5         -1.4470   -4.6050   -0.8370 ha        1 38R      0.153000
     29 H1G        -3.2920   -3.1920   -0.2520 hn        1 38R      0.429800
     30 H6          1.0770   -4.7210   -0.9580 h4        1 38R      0.029100
     31 H1U2       -6.1650    2.7910   -0.9970 hc        1 38R      0.047700
     32 H1T        -5.3210    2.6400    1.1790 hc        1 38R      0.067700
     33 H011       -4.0630    4.2130   -2.2830 hc        1 38R      0.040700
     34 H012       -5.2610    4.9370   -1.1500 hc        1 38R      0.040700
     35 H031       -3.2010    3.4480    1.7490 hc        1 38R      0.047700
     36 H032       -2.3690    2.5640    0.4120 hc        1 38R      0.047700
     37 H1S        -2.7250    0.5530   -1.1280 ha        1 38R      0.180000
     38 H1P        -4.8600   -1.9600    1.5460 hn        1 38R      0.305700
     39 H1Y1       -2.3850    4.5860   -0.7270 hc        1 38R      0.040700
     40 H1Y2       -3.5970    5.3070    0.3940 hc        1 38R      0.040700
     41 H1I         1.0100    0.4570    0.2000 hn        1 38R      0.443800
     42 H1O         2.6910    0.8800    1.8800 ha        1 38R      0.148000
     43 H1K         3.4440   -1.5410   -1.6670 ha        1 38R      0.148000
     44 H1N         5.1190    0.9760    2.3120 ha        1 38R      0.137500
     45 H1L         5.8630   -1.4420   -1.1940 ha        1 38R      0.137500
     46 H1V1        7.2860   -0.1920    1.9900 hc        1 38R      0.079200
     47 H1V2        7.6130   -1.1100    0.4540 hc        1 38R      0.079200
     48 H1U1       -4.7020    2.0470   -1.7490 hc        1 38R      0.047700
@<TRIPOS>BOND
     1    1    2 ar  
     2    1    5 ar  
     3    1   13 1   
     4    2    3 ar  
     5    2   28 1   
     6    3    4 ar  
     7    3   30 1   
     8    4   15 ar  
     9    5   15 ar  
    10    6    7 1   
    11    6   24 1   
    12    6   31 1   
    13    6   48 1   
    14    7    8 1   
    15    7   26 1   
    16    7   32 1   
    17    8    9 1   
    18    8   10 2   
    19    9   12 2   
    20    9   37 1   
    21   10   11 1   
    22   11   12 1   
    23   11   38 1   
    24   12   13 1   
    25   13   29 1   
    26   14   24 1   
    27   14   26 1   
    28   14   39 1   
    29   14   40 1   
    30   15   16 1   
    31   16   17 1   
    32   16   41 1   
    33   17   18 ar  
    34   17   20 ar  
    35   18   19 ar  
    36   18   43 1   
    37   19   22 ar  
    38   19   45 1   
    39   20   21 ar  
    40   20   42 1   
    41   21   22 ar  
    42   21   44 1   
    43   22   23 1   
    44   23   25 1   
    45   23   46 1   
    46   23   47 1   
    47   24   33 1   
    48   24   34 1   
    49   25   27 3   
    50   26   35 1   
    51   26   36 1   
@<TRIPOS>SUBSTRUCTURE
     1 38R         1 TEMP              0 ****  ****    0 ROOT
