@<TRIPOS>MOLECULE
38R
   48    43     1     0     0
SMALL
bcc


@<TRIPOS>ATOM
      1 C4          0.5290   -1.7750   -0.8320 c1        1 38R      0.189000
      2 C5          1.8810   -1.9540   -0.8940 c1        1 38R     -0.153500
      3 C6          2.5960   -2.1450    0.2540 c1        1 38R     -0.153500
      4 N1          1.9690   -2.1570    1.4400 n1        1 38R     -0.227000
      5 N3         -0.0950   -1.7870    0.3550 n1        1 38R     -0.293000
      6 C1U        -1.3680    3.5150   -4.5760 c3        1 38R     -0.152000
      7 C1T        -1.2210    2.2380   -4.9920 c3        1 38R     -0.032000
      8 C1R        -1.1770    1.3000   -3.7940 c2        1 38R     -0.092000
      9 C1S        -0.5680    0.0790   -3.7540 c1        1 38R     -0.265000
     10 N1Q        -1.6560    1.5670   -2.5600 n2        1 38R     -0.081000
     11 N1P        -1.3450    0.5080   -1.7450 n2        1 38R     -0.139000
     12 C1H        -0.6770   -0.4040   -2.4810 c1        1 38R      0.041000
     13 N1G        -0.2280   -1.6740   -2.0300 n2        1 38R     -0.226000
     14 C1Y        -3.5760    2.5350   -5.3400 c3        1 38R     -0.158000
     15 C2          0.6200   -1.9780    1.5000 c1        1 38R      0.185000
     16 N1I        -0.0500   -2.0510    2.7500 n3        1 38R     -0.228000
     17 C1J         0.6520   -1.7610    3.9490 c2        1 38R      0.056000
     18 C1K         1.1340   -2.7950    4.7360 c2        1 38R     -0.104000
     19 C1L         1.7440   -2.5170    5.9500 c1        1 38R     -0.106000
     20 C1O         0.7810   -0.4480    4.3760 c1        1 38R     -0.164000
     21 C1N         1.3910   -0.1700    5.5880 c1        1 38R     -0.101000
     22 C1M         1.8720   -1.2040    6.3760 c1        1 38R     -0.095000
     23 C1V         2.5660   -0.8990    7.6850 c3        1 38R     -0.031000
     24 C01        -2.9370    3.7710   -4.5680 c3        1 38R     -0.158000
     25 C1Z         4.0570   -0.7920    7.4520 c1        1 38R     -0.141000
     26 C03        -2.5330    1.9050   -5.9210 c3        1 38R     -0.152000
     27 N1A         5.1810   -0.7110    7.2770 n1        1 38R     -0.044000
     28 H5          2.3360   -1.9460   -1.7570 ha        1 38R      0.162000
     29 H1G        -0.4260   -2.4240   -2.5090 hn        1 38R      0.245000
     30 H6          3.5630   -2.2740    0.2110 ha        1 38R      0.162000
     31 H1U1       -0.9260    4.1290   -5.2000 hc        1 38R      0.088250
     32 H1U2       -1.0010    3.6240   -3.6740 hc        1 38R      0.088250
     33 H1T        -0.4040    2.1480   -5.5200 hc        1 38R      0.092000
     34 H011       -3.1460    4.6050   -5.0340 hc        1 38R      0.079000
     35 H012       -3.2690    3.8040   -3.6490 hc        1 38R      0.079000
     36 H031       -2.6920    0.9390   -5.9430 hc        1 38R      0.088250
     37 H032       -2.3970    2.2460   -6.8300 hc        1 38R      0.088250
     38 H1S        -0.1320   -0.3690   -4.5030 DU        1 38R      0.226000
     39 H1P        -1.5530    0.4330   -0.8600 DU        1 38R      0.226000
     40 H1Y1       -4.0260    1.9360   -4.7090 hc        1 38R      0.079000
     41 H1Y2       -4.2070    2.8480   -6.0220 hc        1 38R      0.079000
     42 H1I        -0.9280   -2.2960    2.7830 hn        1 38R      0.234000
     43 H1O         0.4420    0.2810    3.8210 ha        1 38R      0.137000
     44 H1K         1.0430   -3.7190    4.4360 ha        1 38R      0.159000
     45 H1N         1.4810    0.7540    5.8880 ha        1 38R      0.138000
     46 H1L         2.0830   -3.2460    6.5040 ha        1 38R      0.138000
     47 H1V1        2.3870   -1.6160    8.3240 hc        1 38R      0.119000
     48 H1V2        2.2300   -0.0520    8.0420 hc        1 38R      0.119000
@<TRIPOS>BOND
     1    1    5 1   
     2    1   13 1   
     3    2    3 1   
     4    2   28 1   
     5    3   30 1   
     6    4   15 1   
     7    6    7 1   
     8    6   24 1   
     9    6   31 1   
    10    6   32 1   
    11    7    8 1   
    12    7   26 1   
    13    7   33 1   
    14    8    9 1   
    15    8   10 1   
    16    9   12 1   
    17   10   11 1   
    18   11   12 1   
    19   13   29 1   
    20   14   24 1   
    21   14   26 1   
    22   14   40 1   
    23   14   41 1   
    24   15   16 1   
    25   16   17 1   
    26   16   42 1   
    27   17   18 1   
    28   17   20 1   
    29   18   19 1   
    30   18   44 1   
    31   19   46 1   
    32   20   43 1   
    33   21   22 1   
    34   21   45 1   
    35   22   23 1   
    36   23   25 1   
    37   23   47 1   
    38   23   48 1   
    39   24   34 1   
    40   24   35 1   
    41   25   27 1   
    42   26   36 1   
    43   26   37 1   
@<TRIPOS>SUBSTRUCTURE
     1 38R         1 TEMP              0 ****  ****    0 ROOT
