@<TRIPOS>MOLECULE
38R
   48    53     1     0     0
SMALL
bcc


@<TRIPOS>ATOM
      1 C4          0.0000    0.0000    0.0000 c2        1 38R      0.017000
      2 C5          1.3970    0.0000    0.0000 c2        1 38R     -0.266000
      3 C6          2.0560    0.0000    1.2140 c2        1 38R      0.031000
      4 N1          1.3500    0.0010    2.3350 n2        1 38R     -0.187000
      5 N3         -0.6450    0.0000    1.1630 n2        1 38R     -0.105000
      6 C1U        -5.6190    2.2270    0.4780 c3        1 38R     -0.291000
      7 C1T        -5.3970    0.7090    0.3480 c3        1 38R      0.000000
      8 C1R        -4.2000    0.4360   -0.5260 c2        1 38R     -0.056000
      9 C1S        -2.8690    0.4040   -0.1020 c2        1 38R     -0.293000
     10 N1Q        -4.2320    0.1820   -1.8090 n2        1 38R     -0.202000
     11 N1P        -2.9180   -0.0160   -2.2540 na        1 38R      0.291000
     12 C1H        -2.0920    0.1250   -1.1850 c2        1 38R     -0.267000
     13 N1G        -0.7040    0.0050   -1.1950 nu        1 38R      0.186000
     14 C1Y        -5.8110    1.2280    2.6950 c3        1 38R     -0.025000
     15 C2          0.0250    0.0010    2.3050 c2        1 38R      0.042000
     16 N1I        -0.6780    0.0020    3.4990 nu        1 38R     -0.098000
     17 C1J         0.0080    0.1070    4.7140 c3        1 38R     -0.029000
     18 C1K         1.1470    0.8960    4.8040 c2        1 38R     -0.152500
     19 C1L         1.8220    0.9980    6.0040 c2        1 38R     -0.043000
     20 C1O        -0.4520   -0.5730    5.8330 c2        1 38R     -0.152500
     21 C1N         0.2260   -0.4670    7.0310 c2        1 38R     -0.043000
     22 C1M         1.3640    0.3150    7.1160 c2        1 38R     -0.150000
     23 C1V         2.1040    0.4280    8.4240 c3        1 38R     -0.017000
     24 C01        -5.4920    2.5630    1.9780 c3        1 38R     -0.025000
     25 C1Z         1.5620    1.5560    9.1980 c2        1 38R     -0.249000
     26 C03        -5.1430    0.1770    1.7740 c3        1 38R     -0.291000
     27 N1A         1.1540    2.4400    9.7850 n1        1 38R     -0.077000
     28 H5          1.9390   -0.0000   -0.9380 ha        1 38R      0.133000
     29 H1G        -0.5650    0.7460   -1.8540 hn        1 38R      0.063000
     30 H6          3.1390   -0.0000    1.2430 h4        1 38R      0.123000
     31 H1U2       -5.5880    2.5200    1.5200 hc        1 38R      0.095500
     32 H1T        -6.2780    0.2400   -0.0740 hc        1 38R      0.102000
     33 H011       -4.4620    2.7610    2.2470 hc        1 38R      0.067000
     34 H012       -6.1420    3.3860    2.2490 hc        1 38R      0.067000
     35 H031       -5.5530   -0.8200    1.8770 hc        1 38R      0.095500
     36 H032       -4.0810    0.1760    1.9870 hc        1 38R      0.095500
     37 H1S        -2.5190    0.5710    0.9100 ha        1 38R      0.188000
     38 H1P        -2.6410   -0.2260   -3.1920 hn        1 38R      0.097000
     39 H1Y1       -6.8700    1.0050    2.6550 hc        1 38R      0.067000
     40 H1Y2       -5.4370    1.2300    3.7120 hc        1 38R      0.067000
     41 H1I        -0.4290   -0.6390    4.2260 DU        1 38R      0.226000
     42 H1O        -1.3440   -1.1850    5.7670 ha        1 38R      0.134000
     43 H1K         1.5060    1.4310    3.9320 ha        1 38R      0.134000
     44 H1N        -0.1320   -0.9970    7.9050 ha        1 38R      0.109000
     45 H1L         2.7110    1.6130    6.0750 ha        1 38R      0.109000
     46 H1V1        2.6820    1.3440    8.4350 hc        1 38R      0.167000
     47 H1V2        1.3930    0.4400    9.2410 DU        1 38R      0.217000
     48 H1U1       -4.8700    2.7630   -0.0920 hc        1 38R      0.095500
@<TRIPOS>BOND
     1    1    2 1   
     2    1    5 1   
     3    1   13 1   
     4    2    3 1   
     5    2   28 1   
     6    3    4 1   
     7    3   30 1   
     8    4   15 1   
     9    5   15 1   
    10    6    7 1   
    11    6   24 1   
    12    6   31 1   
    13    6   48 1   
    14    7    8 1   
    15    7   26 1   
    16    7   32 1   
    17    8    9 1   
    18    8   10 1   
    19    9   12 1   
    20    9   37 1   
    21   10   11 1   
    22   11   12 1   
    23   11   38 1   
    24   12   13 1   
    25   13   29 1   
    26   14   24 1   
    27   14   26 1   
    28   14   39 1   
    29   14   40 1   
    30   15   16 1   
    31   16   17 1   
    32   16   41 1   
    33   17   18 1   
    34   17   20 1   
    35   17   41 1   
    36   18   19 1   
    37   18   43 1   
    38   19   22 1   
    39   19   45 1   
    40   20   21 1   
    41   20   42 1   
    42   21   22 1   
    43   21   44 1   
    44   22   23 1   
    45   23   25 1   
    46   23   46 1   
    47   23   47 1   
    48   24   33 1   
    49   24   34 1   
    50   25   27 1   
    51   25   47 1   
    52   26   35 1   
    53   26   36 1   
@<TRIPOS>SUBSTRUCTURE
     1 38R         1 TEMP              0 ****  ****    0 ROOT
