@<TRIPOS>MOLECULE
38S
   30    31     1     0     0
SMALL
bcc


@<TRIPOS>ATOM
      1 OAC         0.0420   -0.8690   -0.2190 o         1 38S     -0.638500
      2 CAM         1.2460   -0.5360   -0.1960 c         1 38S      0.811500
      3 NAI         2.0560   -0.8870    0.8940 n         1 38S     -0.584500
      4 CAL         3.4160   -0.5420    0.9880 c         1 38S      0.716700
      5 OAB         4.0570   -0.9130    1.9850 o         1 38S     -0.606500
      6 CAK         3.9670    0.2440   -0.1320 cc        1 38S     -0.248400
      7 CAA         5.3850    0.6410   -0.0450 c3        1 38S     -0.032900
      8 CAE         3.1670    0.5710   -1.1840 cd        1 38S      0.033600
      9 NAP         1.8210    0.2390   -1.2430 n         1 38S     -0.385000
     10 CAO         1.0400    0.4570   -2.4570 c3        1 38S      0.298500
     11 OAJ         1.4650   -0.4350   -3.5020 os        1 38S     -0.427600
     12 CAH         1.1430    1.8930   -3.0210 c3        1 38S     -0.113400
     13 CAG         1.9950    1.7790   -4.2750 c3        1 38S     -0.107400
     14 CAN         2.0850    0.2850   -4.5800 c3        1 38S      0.086100
     15 CAF         3.5220   -0.2100   -4.7390 c3        1 38S      0.122400
     16 OAD         3.5570   -1.5620   -5.1380 oh        1 38S     -0.591800
     17 H1          1.6300   -1.4240    1.6190 hn        1 38S      0.353500
     18 H2          5.7630    1.0140   -1.0280 hc        1 38S      0.052033
     19 H3          5.5100    1.4510    0.7190 hc        1 38S      0.052033
     20 H4          6.0080   -0.2320    0.2780 hc        1 38S      0.052033
     21 H5          3.5460    1.1420   -2.0540 h4        1 38S      0.161000
     22 H6         -0.0290    0.1600   -2.2310 h2        1 38S      0.130700
     23 H7          0.1100    2.2440   -3.2720 hc        1 38S      0.073200
     24 H8          1.5780    2.6150   -2.2890 hc        1 38S      0.073200
     25 H9          1.5310    2.3280   -5.1300 hc        1 38S      0.061200
     26 H10         3.0140    2.2120   -4.1080 hc        1 38S      0.061200
     27 H11         1.4910    0.0080   -5.4950 h1        1 38S      0.083700
     28 H12         4.0890   -0.0760   -3.7780 h1        1 38S      0.048200
     29 H13         4.0340    0.3520   -5.5650 h1        1 38S      0.048200
     30 H14         3.0430   -2.0630   -4.4900 ho        1 38S      0.416000
@<TRIPOS>BOND
     1    1    2 2   
     2    2    3 1   
     3    2    9 1   
     4    3    4 1   
     5    3   17 1   
     6    4    5 2   
     7    4    6 1   
     8    6    7 1   
     9    6    8 2   
    10    7   18 1   
    11    7   19 1   
    12    7   20 1   
    13    8    9 1   
    14    8   21 1   
    15    9   10 1   
    16   10   11 1   
    17   10   12 1   
    18   10   22 1   
    19   11   14 1   
    20   12   13 1   
    21   12   23 1   
    22   12   24 1   
    23   13   14 1   
    24   13   25 1   
    25   13   26 1   
    26   14   15 1   
    27   14   27 1   
    28   15   16 1   
    29   15   28 1   
    30   15   29 1   
    31   16   30 1   
@<TRIPOS>SUBSTRUCTURE
     1 38S         1 TEMP              0 ****  ****    0 ROOT
