@<TRIPOS>MOLECULE
38S
   30    31     1     0     0
SMALL
bcc


@<TRIPOS>ATOM
      1 OAC         0.0610   -0.9010   -0.2120 o         1 38S     -0.638500
      2 CAM         1.2630   -0.5590   -0.1920 c         1 38S      0.811500
      3 NAI         2.0800   -0.9090    0.8920 ns        1 38S     -0.584500
      4 CAL         3.4370   -0.5540    0.9820 c         1 38S      0.716700
      5 OAB         4.0860   -0.9250    1.9740 o         1 38S     -0.606500
      6 CAK         3.9780    0.2420   -0.1370 cc        1 38S     -0.248400
      7 CAA         5.3930    0.6510   -0.0530 c3        1 38S     -0.032900
      8 CAE         3.1700    0.5680   -1.1830 cd        1 38S      0.033600
      9 NAP         1.8270    0.2270   -1.2380 n         1 38S     -0.385000
     10 CAO         1.0390    0.4440   -2.4470 c3        1 38S      0.298500
     11 OAJ         1.4660   -0.4390   -3.4980 os        1 38S     -0.427600
     12 CAH         1.1280    1.8840   -3.0050 c3        1 38S     -0.113400
     13 CAG         1.9760    1.7830   -4.2620 c3        1 38S     -0.107400
     14 CAN         2.0760    0.2920   -4.5750 c3        1 38S      0.086100
     15 CAF         3.5160   -0.1910   -4.7440 c3        1 38S      0.122400
     16 OAD         3.5590   -1.5410   -5.1500 oh        1 38S     -0.591800
     17 H1          1.6620   -1.4530    1.6160 hn        1 38S      0.353500
     18 H2          5.5130    1.4620    0.7100 hc        1 38S      0.052033
     19 H3          5.7650    1.0260   -1.0370 hc        1 38S      0.052033
     20 H4          6.0230   -0.2170    0.2670 hc        1 38S      0.052033
     21 H5          3.5410    1.1470   -2.0510 h4        1 38S      0.161000
     22 H6         -0.0270    0.1380   -2.2180 h2        1 38S      0.130700
     23 H7          1.5610    2.6060   -2.2700 hc        1 38S      0.073200
     24 H8          0.0910    2.2280   -3.2490 hc        1 38S      0.073200
     25 H9          1.5030    2.3330   -5.1130 hc        1 38S      0.061200
     26 H10         2.9910    2.2240   -4.0970 hc        1 38S      0.061200
     27 H11         1.4800    0.0150   -5.4900 h1        1 38S      0.083700
     28 H12         4.0860   -0.0580   -3.7850 h1        1 38S      0.048200
     29 H13         4.0200    0.3800   -5.5690 h1        1 38S      0.048200
     30 H14         3.0530   -2.0490   -4.5020 ho        1 38S      0.416000
@<TRIPOS>BOND
     1    1    2 2   
     2    2    3 1   
     3    2    9 1   
     4    3    4 1   
     5    3   17 1   
     6    4    5 2   
     7    4    6 1   
     8    6    7 1   
     9    6    8 2   
    10    7   18 1   
    11    7   19 1   
    12    7   20 1   
    13    8    9 1   
    14    8   21 1   
    15    9   10 1   
    16   10   11 1   
    17   10   12 1   
    18   10   22 1   
    19   11   14 1   
    20   12   13 1   
    21   12   23 1   
    22   12   24 1   
    23   13   14 1   
    24   13   25 1   
    25   13   26 1   
    26   14   15 1   
    27   14   27 1   
    28   15   16 1   
    29   15   28 1   
    30   15   29 1   
    31   16   30 1   
@<TRIPOS>SUBSTRUCTURE
     1 38S         1 TEMP              0 ****  ****    0 ROOT
