@<TRIPOS>MOLECULE
38S
   30    31     1     0     0
SMALL
bcc


@<TRIPOS>ATOM
      1 OAC         0.0590   -0.8820   -0.2040 o         1 38S     -0.638500
      2 CAM         1.2610   -0.5410   -0.1860 c         1 38S      0.811500
      3 NAI         2.0780   -0.8840    0.9010 n         1 38S     -0.584500
      4 CAL         3.4350   -0.5310    0.9880 c         1 38S      0.716700
      5 OAB         4.0830   -0.8960    1.9830 o         1 38S     -0.606500
      6 CAK         3.9770    0.2550   -0.1360 cc        1 38S     -0.248400
      7 CAA         5.3930    0.6630   -0.0560 c3        1 38S     -0.032900
      8 CAE         3.1700    0.5750   -1.1850 cd        1 38S      0.033600
      9 NAP         1.8260    0.2350   -1.2380 n         1 38S     -0.385000
     10 CAO         1.0390    0.4440   -2.4490 c3        1 38S      0.298500
     11 OAJ         1.4650   -0.4470   -3.4930 os        1 38S     -0.427600
     12 CAH         1.1300    1.8800   -3.0170 c3        1 38S     -0.113400
     13 CAG         1.9780    1.7680   -4.2740 c3        1 38S     -0.108400
     14 CAN         2.0760    0.2740   -4.5760 c3        1 38S      0.086100
     15 CAF         3.5160   -0.2120   -4.7400 c3        1 38S      0.122400
     16 OAD         3.5570   -1.5650   -5.1350 oh        1 38S     -0.591800
     17 H1          1.6580   -1.4230    1.6290 hn        1 38S      0.353500
     18 H2          6.0220   -0.2030    0.2730 hc        1 38S      0.052033
     19 H3          5.5140    1.4800    0.6990 hc        1 38S      0.052033
     20 H4          5.7660    1.0280   -1.0440 hc        1 38S      0.052033
     21 H5          3.5420    1.1470   -2.0580 h4        1 38S      0.161000
     22 H6         -0.0280    0.1410   -2.2170 h2        1 38S      0.130700
     23 H7          0.0940    2.2230   -3.2640 hc        1 38S      0.073200
     24 H8          1.5630    2.6060   -2.2880 hc        1 38S      0.073200
     25 H9          1.5060    2.3120   -5.1290 hc        1 38S      0.061200
     26 H10         2.9940    2.2090   -4.1120 hc        1 38S      0.061200
     27 H11         1.4800   -0.0090   -5.4880 h1        1 38S      0.083700
     28 H12         4.0850   -0.0720   -3.7820 h1        1 38S      0.048200
     29 H13         4.0200    0.3510   -5.5700 h1        1 38S      0.048200
     30 H14         3.0490   -2.0680   -4.4840 ho        1 38S      0.416000
@<TRIPOS>BOND
     1    1    2 2   
     2    2    3 1   
     3    2    9 1   
     4    3    4 1   
     5    3   17 1   
     6    4    5 2   
     7    4    6 1   
     8    6    7 1   
     9    6    8 2   
    10    7   18 1   
    11    7   19 1   
    12    7   20 1   
    13    8    9 1   
    14    8   21 1   
    15    9   10 1   
    16   10   11 1   
    17   10   12 1   
    18   10   22 1   
    19   11   14 1   
    20   12   13 1   
    21   12   23 1   
    22   12   24 1   
    23   13   14 1   
    24   13   25 1   
    25   13   26 1   
    26   14   15 1   
    27   14   27 1   
    28   15   16 1   
    29   15   28 1   
    30   15   29 1   
    31   16   30 1   
@<TRIPOS>SUBSTRUCTURE
     1 38S         1 TEMP              0 ****  ****    0 ROOT
