@<TRIPOS>MOLECULE
38T
   32    33     1     0     0
SMALL
bcc


@<TRIPOS>ATOM
      1 OAC        -0.2930   -0.4880   -0.2480 o         1 38T     -0.661500
      2 CAM         0.9360   -0.2490   -0.2060 c         1 38T      0.810500
      3 NAI         1.5300    0.1080    1.0120 ns        1 38T     -0.583500
      4 CAL         2.8940    0.4220    1.1430 c         1 38T      0.715700
      5 OAB         3.3270    0.7390    2.2620 o         1 38T     -0.600500
      6 CAK         3.6960    0.3470   -0.0920 cc        1 38T     -0.243400
      7 CAA         5.1320    0.6720    0.0170 c3        1 38T     -0.033900
      8 CAG         3.1040   -0.0110   -1.2640 cd        1 38T      0.038600
      9 NAR         1.7600   -0.3640   -1.3580 n         1 38T     -0.380000
     10 C1'         1.1960   -0.5970   -2.6830 c3        1 38T      0.310500
     11 O4'         0.6540    0.6120   -3.2300 os        1 38T     -0.431600
     12 C4'        -0.7650    0.5180   -3.4360 c3        1 38T      0.067100
     13 C5'        -1.4720    1.5000   -2.5030 c3        1 38T      0.115400
     14 O5'        -1.0950    2.8300   -2.7890 oh        1 38T     -0.593800
     15 C3'        -1.1950   -0.9370   -3.1910 c3        1 38T      0.096100
     16 O3'        -1.7570   -1.5380   -4.3340 oh        1 38T     -0.586800
     17 C2'         0.0840   -1.6830   -2.7460 c3        1 38T      0.087100
     18 O2'         0.5060   -2.6040   -3.7360 oh        1 38T     -0.603800
     19 H1          0.9310    0.1570    1.8100 hn        1 38T      0.354500
     20 H2          5.6530   -0.1050    0.6310 hc        1 38T      0.054033
     21 H3          5.2620    1.6580    0.5310 hc        1 38T      0.054033
     22 H4          5.6150    0.7210   -0.9890 hc        1 38T      0.054033
     23 H5          3.6780   -0.0580   -2.2100 h4        1 38T      0.169000
     24 H6          2.0520   -0.8800   -3.3720 h2        1 38T      0.108700
     25 H7         -0.9250    0.8230   -4.5070 h1        1 38T      0.088700
     26 H8         -2.5790    1.4660   -2.6840 h1        1 38T      0.066700
     27 H9         -1.2480    1.2480   -1.4320 h1        1 38T      0.066700
     28 H10        -0.1340    2.8780   -2.6990 ho        1 38T      0.409000
     29 H11        -1.9930   -1.0050   -2.4010 h1        1 38T      0.116700
     30 H12        -1.1090   -1.4740   -5.0500 ho        1 38T      0.414000
     31 H13        -0.0730   -2.2100   -1.7680 h1        1 38T      0.094700
     32 H14        -0.2060   -3.2530   -3.8300 ho        1 38T      0.428000
@<TRIPOS>BOND
     1    1    2 2   
     2    2    3 1   
     3    2    9 1   
     4    3    4 1   
     5    3   19 1   
     6    4    5 2   
     7    4    6 1   
     8    6    7 1   
     9    6    8 2   
    10    7   20 1   
    11    7   21 1   
    12    7   22 1   
    13    8    9 1   
    14    8   23 1   
    15    9   10 1   
    16   10   11 1   
    17   10   17 1   
    18   10   24 1   
    19   11   12 1   
    20   12   13 1   
    21   12   15 1   
    22   12   25 1   
    23   13   14 1   
    24   13   26 1   
    25   13   27 1   
    26   14   28 1   
    27   15   16 1   
    28   15   17 1   
    29   15   29 1   
    30   16   30 1   
    31   17   18 1   
    32   17   31 1   
    33   18   32 1   
@<TRIPOS>SUBSTRUCTURE
     1 38T         1 TEMP              0 ****  ****    0 ROOT
