@<TRIPOS>MOLECULE
38T
   32    33     1     0     0
SMALL
bcc


@<TRIPOS>ATOM
      1 OAC        -0.3070   -0.4400   -0.2470 o         1 38T     -0.661500
      2 CAM         0.9250   -0.2220   -0.2030 c         1 38T      0.810500
      3 NAI         1.5190    0.1450    1.0120 n         1 38T     -0.583500
      4 CAL         2.8890    0.4380    1.1440 c         1 38T      0.715700
      5 OAB         3.3220    0.7660    2.2600 o         1 38T     -0.600500
      6 CAK         3.6950    0.3290   -0.0860 cc        1 38T     -0.243400
      7 CAA         5.1360    0.6300    0.0250 c3        1 38T     -0.033900
      8 CAG         3.1020   -0.0390   -1.2540 cd        1 38T      0.038600
      9 NAR         1.7520   -0.3700   -1.3490 n         1 38T     -0.380000
     10 C1'         1.1910   -0.6150   -2.6730 c3        1 38T      0.310500
     11 O4'         0.6720    0.5940   -3.2420 os        1 38T     -0.431600
     12 C4'        -0.7480    0.5200   -3.4530 c3        1 38T      0.067100
     13 C5'        -1.4430    1.5300   -2.5400 c3        1 38T      0.115400
     14 O5'        -1.0420    2.8480   -2.8460 oh        1 38T     -0.593800
     15 C3'        -1.2040   -0.9230   -3.1860 c3        1 38T      0.096100
     16 O3'        -1.7710   -1.5330   -4.3230 oh        1 38T     -0.586800
     17 C2'         0.0610   -1.6830   -2.7230 c3        1 38T      0.087100
     18 O2'         0.4710   -2.6280   -3.6960 oh        1 38T     -0.603800
     19 H1          0.9190    0.2170    1.8060 hn        1 38T      0.354500
     20 H2          5.6410   -0.1480    0.6500 hc        1 38T      0.054033
     21 H3          5.6230    0.6580   -0.9800 hc        1 38T      0.054033
     22 H4          5.2810    1.6200    0.5270 hc        1 38T      0.054033
     23 H5          3.6790   -0.1110   -2.1960 h4        1 38T      0.169000
     24 H6          2.0440   -0.9230   -3.3530 h2        1 38T      0.108700
     25 H7         -0.8980    0.8100   -4.5300 h1        1 38T      0.088700
     26 H8         -2.5500    1.5110   -2.7260 h1        1 38T      0.066700
     27 H9         -1.2280    1.2910   -1.4640 h1        1 38T      0.066700
     28 H10        -0.0810    2.8810   -2.7520 ho        1 38T      0.409000
     29 H11        -2.0060   -0.9640   -2.4000 h1        1 38T      0.116700
     30 H12        -1.1180   -1.4920   -5.0360 ho        1 38T      0.414000
     31 H13        -0.1100   -2.1910   -1.7380 h1        1 38T      0.094700
     32 H14        -0.2510   -3.2650   -3.7820 ho        1 38T      0.428000
@<TRIPOS>BOND
     1    1    2 2   
     2    2    3 1   
     3    2    9 1   
     4    3    4 1   
     5    3   19 1   
     6    4    5 2   
     7    4    6 1   
     8    6    7 1   
     9    6    8 2   
    10    7   20 1   
    11    7   21 1   
    12    7   22 1   
    13    8    9 1   
    14    8   23 1   
    15    9   10 1   
    16   10   11 1   
    17   10   17 1   
    18   10   24 1   
    19   11   12 1   
    20   12   13 1   
    21   12   15 1   
    22   12   25 1   
    23   13   14 1   
    24   13   26 1   
    25   13   27 1   
    26   14   28 1   
    27   15   16 1   
    28   15   17 1   
    29   15   29 1   
    30   16   30 1   
    31   17   18 1   
    32   17   31 1   
    33   18   32 1   
@<TRIPOS>SUBSTRUCTURE
     1 38T         1 TEMP              0 ****  ****    0 ROOT
