@<TRIPOS>MOLECULE
38T
   32    33     1     0     0
SMALL
bcc


@<TRIPOS>ATOM
      1 OAC        -0.2990   -0.4520   -0.2430 o         1 38T     -0.661500
      2 CAM         0.9320   -0.2250   -0.2030 c         1 38T      0.810500
      3 NAI         1.5280    0.1440    1.0100 n         1 38T     -0.583500
      4 CAL         2.8960    0.4460    1.1380 c         1 38T      0.715700
      5 OAB         3.3310    0.7750    2.2530 o         1 38T     -0.600500
      6 CAK         3.6980    0.3440   -0.0950 cc        1 38T     -0.243400
      7 CAA         5.1370    0.6560    0.0110 c3        1 38T     -0.033900
      8 CAG         3.1040   -0.0260   -1.2610 cd        1 38T      0.038600
      9 NAR         1.7560   -0.3660   -1.3520 n         1 38T     -0.380000
     10 C1'         1.1910   -0.6130   -2.6740 c3        1 38T      0.310500
     11 O4'         0.6630    0.5930   -3.2400 os        1 38T     -0.431600
     12 C4'        -0.7570    0.5100   -3.4460 c3        1 38T      0.067100
     13 C5'        -1.4550    1.5150   -2.5300 c3        1 38T      0.115400
     14 O5'        -1.0630    2.8360   -2.8350 oh        1 38T     -0.593800
     15 C3'        -1.2030   -0.9360   -3.1790 c3        1 38T      0.096100
     16 O3'        -1.7700   -1.5480   -4.3150 oh        1 38T     -0.586800
     17 C2'         0.0680   -1.6880   -2.7220 c3        1 38T      0.087100
     18 O2'         0.4810   -2.6290   -3.6980 oh        1 38T     -0.603800
     19 H1          0.9290    0.2110    1.8060 hn        1 38T      0.354500
     20 H2          5.6230    0.6780   -0.9940 hc        1 38T      0.054033
     21 H3          5.2760    1.6510    0.5060 hc        1 38T      0.054033
     22 H4          5.6490   -0.1150    0.6430 hc        1 38T      0.054033
     23 H5          3.6780   -0.0930   -2.2060 h4        1 38T      0.169000
     24 H6          2.0450   -0.9160   -3.3570 h2        1 38T      0.108700
     25 H7         -0.9120    0.8010   -4.5220 h1        1 38T      0.088700
     26 H8         -1.2340    1.2760   -1.4550 h1        1 38T      0.066700
     27 H9         -2.5620    1.4890   -2.7110 h1        1 38T      0.066700
     28 H10        -0.1020    2.8750   -2.7450 ho        1 38T      0.409000
     29 H11        -2.0020   -0.9830   -2.3900 h1        1 38T      0.116700
     30 H12        -1.1200   -1.5020   -5.0300 ho        1 38T      0.414000
     31 H13        -0.0960   -2.1990   -1.7370 h1        1 38T      0.094700
     32 H14        -0.2380   -3.2720   -3.7820 ho        1 38T      0.428000
@<TRIPOS>BOND
     1    1    2 2   
     2    2    3 1   
     3    2    9 1   
     4    3    4 1   
     5    3   19 1   
     6    4    5 2   
     7    4    6 1   
     8    6    7 1   
     9    6    8 2   
    10    7   20 1   
    11    7   21 1   
    12    7   22 1   
    13    8    9 1   
    14    8   23 1   
    15    9   10 1   
    16   10   11 1   
    17   10   17 1   
    18   10   24 1   
    19   11   12 1   
    20   12   13 1   
    21   12   15 1   
    22   12   25 1   
    23   13   14 1   
    24   13   26 1   
    25   13   27 1   
    26   14   28 1   
    27   15   16 1   
    28   15   17 1   
    29   15   29 1   
    30   16   30 1   
    31   17   18 1   
    32   17   31 1   
    33   18   32 1   
@<TRIPOS>SUBSTRUCTURE
     1 38T         1 TEMP              0 ****  ****    0 ROOT
