@<TRIPOS>MOLECULE
38U
   22    23     1     0     0
SMALL
bcc


@<TRIPOS>ATOM
      1 C59         0.1290   -0.0670   -0.1250 c3        1 38U     -0.159000
      2 C58         1.5940    0.0050   -0.1250 c2        1 38U     -0.184000
      3 C57         2.4160    0.0150    1.0630 c2        1 38U      0.034000
      4 C56         1.9740   -0.0480    2.4650 c3        1 38U     -0.123000
      5 C55         3.1030   -0.0080    3.4290 c2        1 38U     -0.158000
      6 C54         4.3910    0.0800    3.0340 c2        1 38U     -0.166000
      7 C53         4.8090    0.1510    1.6500 c1        1 38U     -0.129000
      8 C52         3.7750    0.1050    0.7160 c2        1 38U     -0.222000
      9 C51         3.8610    0.1510   -0.7840 c3        1 38U     -0.107000
     10 C50         2.4230    0.0840   -1.2280 c2        1 38U     -0.006000
     11 C2          2.0440    0.0650   -2.6910 c2        1 38U      0.353000
     12 O3          0.9850    0.6570   -3.0420 o         1 38U     -0.549000
     13 H4         -0.2560    0.1140   -1.1630 hc        1 38U      0.078667
     14 H5         -0.2180   -1.0730    0.2220 hc        1 38U      0.078667
     15 H6         -0.3030    0.7030    0.5620 hc        1 38U      0.078667
     16 H7          1.3810   -0.9940    2.6230 hc        1 38U      0.119000
     17 H8          1.2750    0.8120    2.6710 hc        1 38U      0.119000
     18 H9          2.8140   -0.0560    4.4900 ha        1 38U      0.101000
     19 H10         5.2010    0.1040    3.7820 ha        1 38U      0.116000
     20 H11         4.4310   -0.7160   -1.2070 hc        1 38U      0.137000
     21 H12         4.3490    1.0920   -1.1430 hc        1 38U      0.137000
     22 OXT         2.8170   -0.5500   -3.4760 o         1 38U     -0.549000
@<TRIPOS>BOND
     1    1    2 1   
     2    1   13 1   
     3    1   14 1   
     4    1   15 1   
     5    2    3 1   
     6    2   10 1   
     7    3    4 1   
     8    3    8 1   
     9    4    5 1   
    10    4   16 1   
    11    4   17 1   
    12    5    6 1   
    13    5   18 1   
    14    6    7 1   
    15    6   19 1   
    16    7    8 1   
    17    8    9 1   
    18    9   10 1   
    19    9   20 1   
    20    9   21 1   
    21   10   11 1   
    22   11   12 1   
    23   11   22 1   
@<TRIPOS>SUBSTRUCTURE
     1 38U         1 TEMP              0 ****  ****    0 ROOT
