@<TRIPOS>MOLECULE
38U
   22    23     1     0     0
SMALL
bcc


@<TRIPOS>ATOM
      1 C59         0.1240   -0.1530   -0.1200 c3        1 38U     -0.159000
      2 C58         1.5850   -0.0250   -0.1180 c2        1 38U     -0.184000
      3 C57         2.4020    0.0350    1.0720 c2        1 38U      0.034000
      4 C56         1.9590   -0.0220    2.4740 c3        1 38U     -0.123000
      5 C55         3.0830    0.0750    3.4390 c2        1 38U     -0.158000
      6 C54         4.3680    0.2050    3.0460 c2        1 38U     -0.166000
      7 C53         4.7870    0.2710    1.6620 c1        1 38U     -0.129000
      8 C52         3.7580    0.1710    0.7260 c2        1 38U     -0.222000
      9 C51         3.8470    0.1970   -0.7740 c3        1 38U     -0.107000
     10 C50         2.4140    0.0680   -1.2200 c2        1 38U     -0.006000
     11 C2          2.0400    0.0110   -2.6830 c2        1 38U      0.353000
     12 O3          0.9600    0.5560   -3.0460 o         1 38U     -0.549000
     13 H4         -0.2650   -0.0030   -1.1620 hc        1 38U      0.078667
     14 H5         -0.1860   -1.1650    0.2430 hc        1 38U      0.078667
     15 H6         -0.3390    0.6120    0.5530 hc        1 38U      0.078667
     16 H7          1.2270    0.8140    2.6640 hc        1 38U      0.119000
     17 H8          1.4020   -0.9870    2.6450 hc        1 38U      0.119000
     18 H9          2.7930    0.0340    4.5000 ha        1 38U      0.101000
     19 H10         5.1740    0.2720    3.7950 ha        1 38U      0.116000
     20 H11         4.4510   -0.6550   -1.1820 hc        1 38U      0.137000
     21 H12         4.3000    1.1500   -1.1470 hc        1 38U      0.137000
     22 OXT         2.8380   -0.5850   -3.4570 o         1 38U     -0.549000
@<TRIPOS>BOND
     1    1    2 1   
     2    1   13 1   
     3    1   14 1   
     4    1   15 1   
     5    2    3 1   
     6    2   10 1   
     7    3    4 1   
     8    3    8 1   
     9    4    5 1   
    10    4   16 1   
    11    4   17 1   
    12    5    6 1   
    13    5   18 1   
    14    6    7 1   
    15    6   19 1   
    16    7    8 1   
    17    8    9 1   
    18    9   10 1   
    19    9   20 1   
    20    9   21 1   
    21   10   11 1   
    22   11   12 1   
    23   11   22 1   
@<TRIPOS>SUBSTRUCTURE
     1 38U         1 TEMP              0 ****  ****    0 ROOT
