@<TRIPOS>MOLECULE
38W
   50    54     1     0     0
SMALL
bcc


@<TRIPOS>ATOM
      1 C01        -0.2480    0.5980   -0.3410 c3        1 38W     -0.107767
      2 C02         1.2240    0.1490   -0.2540 c3        1 38W      0.217200
      3 C03         1.3850   -0.6790    1.0280 c3        1 38W     -0.107767
      4 C04         1.5050   -0.7620   -1.4580 c3        1 38W     -0.107767
      5 N05         2.0770    1.3520   -0.2270 nu        1 38W     -0.784900
      6 C06         3.4510    1.2080   -0.3210 cc        1 38W      0.664300
      7 N07         4.3500    0.2810    0.1250 nd        1 38W     -0.392000
      8 N08         5.5700    0.7210   -0.1200 nd        1 38W     -0.335000
      9 C09         5.5160    1.9260   -0.7210 cc        1 38W      0.502900
     10 O10         4.1630    2.2980   -0.8910 os        1 38W     -0.426800
     11 C11         6.5370    2.8400   -1.1870 ca        1 38W     -0.159500
     12 C12         6.1510    4.0840   -1.7380 ca        1 38W     -0.086000
     13 C13         7.0910    4.9900   -2.1950 ca        1 38W     -0.151000
     14 C14         8.4460    4.6360   -2.0950 ca        1 38W     -0.045200
     15 N15         9.5940    5.3410   -2.4700 na        1 38W     -0.187400
     16 C16        10.7080    4.5670   -2.1660 cc        1 38W     -0.044100
     17 C17        10.3060    3.3510   -1.5930 cd        1 38W     -0.209000
     18 C18        11.2200    2.3000   -1.1550 ca        1 38W      0.751800
     19 N19        10.6800    1.1490   -0.6300 nb        1 38W     -0.701000
     20 C20        11.5520    0.2040   -0.2370 ca        1 38W      0.439200
     21 C21        12.9440    0.3560   -0.3440 ca        1 38W     -0.378600
     22 C22        13.4180    1.5700   -0.8950 ca        1 38W      0.488600
     23 N23        12.5660    2.5430   -1.3010 nb        1 38W     -0.725000
     24 C24        14.8790    1.7610   -1.0210 cx        1 38W     -0.201000
     25 C25        15.4660    2.5180   -2.1890 cx        1 38W     -0.108900
     26 C26        15.5050    3.1210   -0.8210 cx        1 38W     -0.108900
     27 C27         8.8560    3.3650   -1.5340 ca        1 38W     -0.064800
     28 C28         7.8820    2.4750   -1.0810 ca        1 38W     -0.022000
     29 H1         -0.5210    1.2330    0.5350 hc        1 38W      0.049144
     30 H2         -0.4400    1.1690   -1.2800 hc        1 38W      0.049144
     31 H3         -0.8980   -0.3090   -0.3410 hc        1 38W      0.049144
     32 H4          2.3920   -1.1560    1.0790 hc        1 38W      0.049144
     33 H5          1.2410   -0.0410    1.9330 hc        1 38W      0.049144
     34 H6          0.6120   -1.4850    1.0310 hc        1 38W      0.049144
     35 H7          2.5510   -1.1510   -1.4290 hc        1 38W      0.049144
     36 H8          0.8060   -1.6320   -1.4290 hc        1 38W      0.049144
     37 H9          1.3480   -0.2130   -2.4170 hc        1 38W      0.049144
     38 H10         1.7380    2.0790   -0.8290 hn        1 38W      0.414800
     39 H11         5.0800    4.3300   -1.8000 ha        1 38W      0.145000
     40 H12         6.7870    5.9550   -2.6210 ha        1 38W      0.136000
     41 H13         9.6040    6.2380   -2.8760 hn        1 38W      0.303700
     42 H14        11.7190    4.9270   -2.3750 h4        1 38W      0.185000
     43 H15        11.1060   -0.7160    0.1840 h4        1 38W      0.029100
     44 H16        13.6320   -0.4300   -0.0150 ha        1 38W      0.152000
     45 H17        15.4410    0.8790   -0.6490 hc        1 38W      0.086700
     46 H18        14.7860    2.9470   -2.9470 hc        1 38W      0.077700
     47 H19        16.4000    2.1360   -2.6390 hc        1 38W      0.077700
     48 H20        16.4670    3.1750   -0.2800 hc        1 38W      0.077700
     49 H21        14.8530    3.9840   -0.5940 hc        1 38W      0.077700
     50 H22         8.1640    1.5020   -0.6470 ha        1 38W      0.183000
@<TRIPOS>BOND
     1    1    2 1   
     2    1   29 1   
     3    1   30 1   
     4    1   31 1   
     5    2    3 1   
     6    2    4 1   
     7    2    5 1   
     8    3   32 1   
     9    3   33 1   
    10    3   34 1   
    11    4   35 1   
    12    4   36 1   
    13    4   37 1   
    14    5    6 1   
    15    5   38 1   
    16    6    7 2   
    17    6   10 1   
    18    7    8 1   
    19    8    9 2   
    20    9   10 1   
    21    9   11 1   
    22   11   12 ar  
    23   11   28 ar  
    24   12   13 ar  
    25   12   39 1   
    26   13   14 ar  
    27   13   40 1   
    28   14   15 1   
    29   14   27 ar  
    30   15   16 1   
    31   15   41 1   
    32   16   17 2   
    33   16   42 1   
    34   17   18 1   
    35   17   27 1   
    36   18   19 ar  
    37   18   23 ar  
    38   19   20 ar  
    39   20   21 ar  
    40   20   43 1   
    41   21   22 ar  
    42   21   44 1   
    43   22   23 ar  
    44   22   24 1   
    45   24   25 1   
    46   24   26 1   
    47   24   45 1   
    48   25   26 1   
    49   25   46 1   
    50   25   47 1   
    51   26   48 1   
    52   26   49 1   
    53   27   28 ar  
    54   28   50 1   
@<TRIPOS>SUBSTRUCTURE
     1 38W         1 TEMP              0 ****  ****    0 ROOT
