@<TRIPOS>MOLECULE
38Z
   77    83     1     0     0
SMALL
bcc


@<TRIPOS>ATOM
      1 O1         -0.2480   -0.5620   -0.1920 o         1 38Z     -0.590100
      2 C20         0.9410   -0.2170   -0.0630 c         1 38Z      0.674100
      3 N5          1.5130    0.0670    1.1700 n         1 38Z     -0.468100
      4 C21         0.8620    0.0900    2.4170 ca        1 38Z      0.051600
      5 C26        -0.3770   -0.4950    2.6330 ca        1 38Z     -0.119000
      6 C25        -0.9450   -0.4260    3.9190 ca        1 38Z     -0.077000
      7 C27        -2.1560   -0.8870    4.5040 cc        1 38Z     -0.079300
      8 C28        -3.2720   -1.6010    3.9250 ca        1 38Z      0.012200
      9 C32        -3.6160   -1.4070    2.5780 ca        1 38Z     -0.238800
     10 C31        -4.7040   -2.1250    2.0520 ca        1 38Z      0.398200
     11 N6         -5.4470   -2.9910    2.7690 nb        1 38Z     -0.662000
     12 C30        -5.1080   -3.1670    4.0610 ca        1 38Z      0.398200
     13 C29        -4.0380   -2.5020    4.6840 ca        1 38Z     -0.238800
     14 N7         -2.0840   -0.5020    5.8500 na        1 38Z      0.063800
     15 N8         -0.9820    0.1500    6.1720 nc        1 38Z     -0.253400
     16 C24        -0.2330    0.2250    5.0180 ca        1 38Z     -0.105000
     17 C23         1.0390    0.8080    4.7680 ca        1 38Z     -0.062000
     18 C22         1.5590    0.7420    3.5070 ca        1 38Z     -0.158000
     19 C19         1.8830   -0.1400   -1.2550 c3        1 38Z     -0.160700
     20 C           2.6740    1.1650   -1.3370 c3        1 38Z     -0.097400
     21 C18         1.1170   -0.2300   -2.5930 c3        1 38Z      0.166800
     22 N           1.6680    0.7550   -3.5290 n3        1 38Z     -0.708600
     23 C1          2.6760    1.5520   -2.8250 c3        1 38Z      0.160800
     24 C2          2.1100    0.1630   -4.7760 c3        1 38Z      0.106800
     25 C3          2.6110    1.1880   -5.8010 c         1 38Z      0.660100
     26 O           3.0690    2.2970   -5.4630 o         1 38Z     -0.597100
     27 N1          2.5100    0.8650   -7.1540 n         1 38Z     -0.467800
     28 C7          2.3840   -0.4870   -7.6410 c3        1 38Z      0.082000
     29 C6          3.6260   -0.9880   -8.4190 c3        1 38Z      0.163300
     30 N2          4.0620   -0.0480   -9.4350 nh        1 38Z     -0.638000
     31 C5          4.2180    1.3100   -8.9350 c3        1 38Z      0.163300
     32 C4          2.9780    1.8000   -8.1550 c3        1 38Z      0.082000
     33 C8          5.0710   -0.4990  -10.3200 ca        1 38Z      0.157600
     34 C13         5.7170   -1.7460  -10.1620 ca        1 38Z     -0.186500
     35 C12         6.6410   -2.1970  -11.0990 ca        1 38Z     -0.059500
     36 C11         6.9590   -1.4210  -12.2190 cp        1 38Z     -0.174500
     37 C10         6.3280   -0.1810  -12.3870 ca        1 38Z     -0.059500
     38 C9          5.4020    0.2760  -11.4590 ca        1 38Z     -0.186500
     39 C14         7.9490   -1.9020  -13.2130 cp        1 38Z      0.709500
     40 N4          7.7610   -1.5420  -14.5270 nb        1 38Z     -0.695500
     41 C17         8.6700   -1.9900  -15.4120 ca        1 38Z      0.431200
     42 C16         9.7680   -2.7880  -15.0400 ca        1 38Z     -0.372600
     43 C15         9.8740   -3.1030  -13.6730 ca        1 38Z      0.431200
     44 N3          8.9880   -2.6770  -12.7550 nb        1 38Z     -0.695500
     45 H1          2.4490    0.4080    1.1670 hn        1 38Z      0.316500
     46 H2         -0.9270   -1.0110    1.8290 ha        1 38Z      0.174000
     47 H3         -3.0520   -0.7070    1.9460 ha        1 38Z      0.150500
     48 H4         -4.9990   -1.9990    0.9940 h4        1 38Z      0.026100
     49 H5         -5.7300   -3.8830    4.6270 h4        1 38Z      0.026100
     50 H6         -3.8060   -2.7090    5.7360 ha        1 38Z      0.150500
     51 H7         -2.7900   -0.6610    6.5350 hn        1 38Z      0.325700
     52 H8          1.5820    1.3020    5.5880 ha        1 38Z      0.148000
     53 H9          2.5430    1.1970    3.3110 ha        1 38Z      0.129000
     54 H10         2.5880   -1.0120   -1.1750 hc        1 38Z      0.074700
     55 H11         3.7160    1.0330   -0.9600 hc        1 38Z      0.054700
     56 H12         2.1870    1.9750   -0.7390 hc        1 38Z      0.054700
     57 H13         0.0320    0.0350   -2.4400 h1        1 38Z      0.067700
     58 H14         1.1640   -1.2810   -2.9870 h1        1 38Z      0.067700
     59 H16         3.7040    1.4140   -3.2600 h1        1 38Z      0.064200
     60 H17         2.3950    2.6320   -2.9620 h1        1 38Z      0.064200
     61 H18         1.2130   -0.3790   -5.1950 h1        1 38Z      0.052700
     62 H19         2.9490   -0.5830   -4.6400 h1        1 38Z      0.052700
     63 H20         2.2090   -1.2130   -6.8010 h1        1 38Z      0.067450
     64 H21         1.4890   -0.5200   -8.3280 h1        1 38Z      0.067450
     65 H22         4.4490   -1.2120   -7.6790 h1        1 38Z      0.047450
     66 H23         3.3370   -1.9500   -8.9280 h1        1 38Z      0.047450
     67 H24         5.1250    1.3940   -8.2690 h1        1 38Z      0.047450
     68 H25         4.3620    2.0060   -9.8070 h1        1 38Z      0.047450
     69 H26         2.1300    1.9660   -8.8810 h1        1 38Z      0.067450
     70 H27         3.2380    2.7840   -7.6730 h1        1 38Z      0.067450
     71 H28         5.5050   -2.3870   -9.2940 ha        1 38Z      0.136000
     72 H29         7.1240   -3.1750  -10.9430 ha        1 38Z      0.149000
     73 H30         6.5580    0.4460  -13.2640 ha        1 38Z      0.149000
     74 H31         4.9150    1.2470  -11.6340 ha        1 38Z      0.136000
     75 H32         8.5050   -1.6940  -16.4640 h4        1 38Z      0.028100
     76 H33        10.4980   -3.1430  -15.7730 ha        1 38Z      0.155000
     77 H34        10.7060   -3.7230  -13.2890 h4        1 38Z      0.028100
@<TRIPOS>BOND
     1    1    2 2   
     2    2    3 1   
     3    2   19 1   
     4    3    4 1   
     5    3   45 1   
     6    4    5 ar  
     7    4   18 ar  
     8    5    6 ar  
     9    5   46 1   
    10    6    7 2   
    11    6   16 ar  
    12    7    8 1   
    13    7   14 1   
    14    8    9 ar  
    15    8   13 ar  
    16    9   10 ar  
    17    9   47 1   
    18   10   11 ar  
    19   10   48 1   
    20   11   12 ar  
    21   12   13 ar  
    22   12   49 1   
    23   13   50 1   
    24   14   15 1   
    25   14   51 1   
    26   15   16 2   
    27   16   17 ar  
    28   17   18 ar  
    29   17   52 1   
    30   18   53 1   
    31   19   20 1   
    32   19   21 1   
    33   19   54 1   
    34   20   23 1   
    35   20   55 1   
    36   20   56 1   
    37   21   22 1   
    38   21   57 1   
    39   21   58 1   
    40   22   23 1   
    41   22   24 1   
    42   23   59 1   
    43   23   60 1   
    44   24   25 1   
    45   24   61 1   
    46   24   62 1   
    47   25   26 2   
    48   25   27 1   
    49   27   28 1   
    50   27   32 1   
    51   28   29 1   
    52   28   63 1   
    53   28   64 1   
    54   29   30 1   
    55   29   65 1   
    56   29   66 1   
    57   30   31 1   
    58   30   33 1   
    59   31   32 1   
    60   31   67 1   
    61   31   68 1   
    62   32   69 1   
    63   32   70 1   
    64   33   34 ar  
    65   33   38 ar  
    66   34   35 ar  
    67   34   71 1   
    68   35   36 ar  
    69   35   72 1   
    70   36   37 ar  
    71   36   39 1   
    72   37   38 ar  
    73   37   73 1   
    74   38   74 1   
    75   39   40 ar  
    76   39   44 ar  
    77   40   41 ar  
    78   41   42 ar  
    79   41   75 1   
    80   42   43 ar  
    81   42   76 1   
    82   43   44 ar  
    83   43   77 1   
@<TRIPOS>SUBSTRUCTURE
     1 38Z         1 TEMP              0 ****  ****    0 ROOT
