@<TRIPOS>MOLECULE
38Z
   77    83     1     0     0
SMALL
bcc


@<TRIPOS>ATOM
      1 O1         -0.2470   -0.5570   -0.1910 o         1 38Z     -0.590100
      2 C20         0.9420   -0.2160   -0.0600 c         1 38Z      0.674100
      3 N5          1.5140    0.0630    1.1740 ns        1 38Z     -0.468100
      4 C21         0.8620    0.0850    2.4200 ca        1 38Z      0.051600
      5 C26        -0.3770   -0.5000    2.6340 ca        1 38Z     -0.119000
      6 C25        -0.9460   -0.4340    3.9200 ca        1 38Z     -0.077000
      7 C27        -2.1580   -0.8960    4.5030 cc        1 38Z     -0.079300
      8 C28        -3.2740   -1.6080    3.9220 ca        1 38Z      0.012200
      9 C32        -3.6170   -1.4100    2.5750 ca        1 38Z     -0.238800
     10 C31        -4.7050   -2.1270    2.0470 ca        1 38Z      0.398200
     11 N6         -5.4480   -2.9940    2.7610 nb        1 38Z     -0.662000
     12 C30        -5.1100   -3.1730    4.0530 ca        1 38Z      0.398200
     13 C29        -4.0400   -2.5110    4.6780 ca        1 38Z     -0.238800
     14 N7         -2.0860   -0.5140    5.8500 na        1 38Z      0.063800
     15 N8         -0.9840    0.1370    6.1750 nc        1 38Z     -0.253400
     16 C24        -0.2340    0.2150    5.0200 ca        1 38Z     -0.105000
     17 C23         1.0390    0.7970    4.7730 ca        1 38Z     -0.062000
     18 C22         1.5590    0.7330    3.5120 ca        1 38Z     -0.158000
     19 C19         1.8850   -0.1390   -1.2520 c3        1 38Z     -0.160700
     20 C           2.6810    1.1640   -1.3300 c3        1 38Z     -0.097400
     21 C18         1.1190   -0.2220   -2.5910 c3        1 38Z      0.166800
     22 N           1.6760    0.7630   -3.5230 n3        1 38Z     -0.708600
     23 C1          2.6860    1.5540   -2.8170 c3        1 38Z      0.160800
     24 C2          2.1160    0.1710   -4.7710 c3        1 38Z      0.106800
     25 C3          2.6240    1.1970   -5.7940 c         1 38Z      0.660100
     26 O           3.0860    2.3020   -5.4520 o         1 38Z     -0.597100
     27 N1          2.5230    0.8760   -7.1470 n         1 38Z     -0.467800
     28 C7          2.3880   -0.4730   -7.6380 c3        1 38Z      0.082000
     29 C6          3.6260   -0.9790   -8.4190 c3        1 38Z      0.163300
     30 N2          4.0660   -0.0390   -9.4330 nh        1 38Z     -0.638000
     31 C5          4.2310    1.3170   -8.9290 c3        1 38Z      0.163300
     32 C4          2.9950    1.8120   -8.1460 c3        1 38Z      0.082000
     33 C8          5.0710   -0.4930  -10.3210 ca        1 38Z      0.157600
     34 C13         5.7100   -1.7440  -10.1680 ca        1 38Z     -0.186500
     35 C12         6.6300   -2.1980  -11.1070 ca        1 38Z     -0.059500
     36 C11         6.9500   -1.4210  -12.2250 cp        1 38Z     -0.174500
     37 C10         6.3270   -0.1770  -12.3890 ca        1 38Z     -0.059500
     38 C9          5.4050    0.2820  -11.4580 ca        1 38Z     -0.186500
     39 C14         7.9350   -1.9060  -13.2220 cp        1 38Z      0.709500
     40 N4          7.7470   -1.5420  -14.5350 nb        1 38Z     -0.695500
     41 C17         8.6520   -1.9930  -15.4220 ca        1 38Z      0.431200
     42 C16         9.7460   -2.7980  -15.0540 ca        1 38Z     -0.372600
     43 C15         9.8530   -3.1170  -13.6880 ca        1 38Z      0.431200
     44 N3          8.9710   -2.6880  -12.7680 nb        1 38Z     -0.695500
     45 H1          2.4510    0.4020    1.1720 hn        1 38Z      0.316500
     46 H2         -0.9270   -1.0140    1.8290 ha        1 38Z      0.174000
     47 H3         -3.0510   -0.7090    1.9450 ha        1 38Z      0.150500
     48 H4         -4.9990   -1.9980    0.9890 h4        1 38Z      0.026100
     49 H5         -5.7320   -3.8910    4.6170 h4        1 38Z      0.026100
     50 H6         -3.8080   -2.7200    5.7300 ha        1 38Z      0.150500
     51 H7         -2.7920   -0.6740    6.5340 hn        1 38Z      0.325700
     52 H8          1.5810    1.2900    5.5940 ha        1 38Z      0.148000
     53 H9          2.5430    1.1890    3.3170 ha        1 38Z      0.129000
     54 H10         2.5870   -1.0140   -1.1730 hc        1 38Z      0.074700
     55 H11         3.7230    1.0260   -0.9520 hc        1 38Z      0.054700
     56 H12         2.1960    1.9740   -0.7310 hc        1 38Z      0.054700
     57 H13         1.1620   -1.2720   -2.9870 h1        1 38Z      0.067700
     58 H14         0.0360    0.0480   -2.4370 h1        1 38Z      0.067700
     59 H16         3.7150    1.4120   -3.2510 h1        1 38Z      0.064200
     60 H17         2.4110    2.6350   -2.9520 h1        1 38Z      0.064200
     61 H18         1.2170   -0.3650   -5.1920 h1        1 38Z      0.052700
     62 H19         2.9520   -0.5790   -4.6360 h1        1 38Z      0.052700
     63 H20         1.4920   -0.4980   -8.3240 h1        1 38Z      0.067200
     64 H21         2.2100   -1.2000   -6.8000 h1        1 38Z      0.067200
     65 H22         4.4480   -1.2100   -7.6800 h1        1 38Z      0.047450
     66 H23         3.3300   -1.9380   -8.9300 h1        1 38Z      0.047450
     67 H24         4.3780    2.0140   -9.7990 h1        1 38Z      0.047450
     68 H25         5.1400    1.3930   -8.2640 h1        1 38Z      0.047450
     69 H26         3.2620    2.7930   -7.6610 h1        1 38Z      0.067200
     70 H27         2.1480    1.9860   -8.8700 h1        1 38Z      0.067200
     71 H28         5.4960   -2.3860   -9.3000 ha        1 38Z      0.136000
     72 H29         7.1060   -3.1800  -10.9540 ha        1 38Z      0.149000
     73 H30         6.5590    0.4510  -13.2640 ha        1 38Z      0.149000
     74 H31         4.9230    1.2570  -11.6300 ha        1 38Z      0.136000
     75 H32         8.4870   -1.6940  -16.4730 h4        1 38Z      0.028100
     76 H33        10.4730   -3.1560  -15.7900 ha        1 38Z      0.155000
     77 H34        10.6810   -3.7420  -13.3080 h4        1 38Z      0.028100
@<TRIPOS>BOND
     1    1    2 2   
     2    2    3 1   
     3    2   19 1   
     4    3    4 1   
     5    3   45 1   
     6    4    5 ar  
     7    4   18 ar  
     8    5    6 ar  
     9    5   46 1   
    10    6    7 2   
    11    6   16 ar  
    12    7    8 1   
    13    7   14 1   
    14    8    9 ar  
    15    8   13 ar  
    16    9   10 ar  
    17    9   47 1   
    18   10   11 ar  
    19   10   48 1   
    20   11   12 ar  
    21   12   13 ar  
    22   12   49 1   
    23   13   50 1   
    24   14   15 1   
    25   14   51 1   
    26   15   16 2   
    27   16   17 ar  
    28   17   18 ar  
    29   17   52 1   
    30   18   53 1   
    31   19   20 1   
    32   19   21 1   
    33   19   54 1   
    34   20   23 1   
    35   20   55 1   
    36   20   56 1   
    37   21   22 1   
    38   21   57 1   
    39   21   58 1   
    40   22   23 1   
    41   22   24 1   
    42   23   59 1   
    43   23   60 1   
    44   24   25 1   
    45   24   61 1   
    46   24   62 1   
    47   25   26 2   
    48   25   27 1   
    49   27   28 1   
    50   27   32 1   
    51   28   29 1   
    52   28   63 1   
    53   28   64 1   
    54   29   30 1   
    55   29   65 1   
    56   29   66 1   
    57   30   31 1   
    58   30   33 1   
    59   31   32 1   
    60   31   67 1   
    61   31   68 1   
    62   32   69 1   
    63   32   70 1   
    64   33   34 ar  
    65   33   38 ar  
    66   34   35 ar  
    67   34   71 1   
    68   35   36 ar  
    69   35   72 1   
    70   36   37 ar  
    71   36   39 1   
    72   37   38 ar  
    73   37   73 1   
    74   38   74 1   
    75   39   40 ar  
    76   39   44 ar  
    77   40   41 ar  
    78   41   42 ar  
    79   41   75 1   
    80   42   43 ar  
    81   42   76 1   
    82   43   44 ar  
    83   43   77 1   
@<TRIPOS>SUBSTRUCTURE
     1 38Z         1 TEMP              0 ****  ****    0 ROOT
