@<TRIPOS>MOLECULE
38Z
   78    84     1     0     0
SMALL
bcc


@<TRIPOS>ATOM
      1 O1          0.6040   -3.3740    0.4750 o         1 38Z     -0.415100
      2 C20         1.6870   -2.9230    0.8090 c         1 38Z      0.567100
      3 N5          1.7610   -2.4660    2.2620 n4        1 38Z     -0.542200
      4 C21         1.2460   -1.1050    2.4470 ca        1 38Z     -0.096400
      5 C26        -0.0490   -0.7960    2.0560 ca        1 38Z      0.010000
      6 C25        -0.5040    0.5100    2.2780 ca        1 38Z     -0.151000
      7 C27        -1.7280    1.2040    2.0380 cc        1 38Z      0.010700
      8 C28        -2.9610    0.7440    1.4310 ca        1 38Z     -0.034800
      9 C32        -2.9240   -0.1030    0.3130 ca        1 38Z     -0.228300
     10 C31        -4.1450   -0.5310   -0.2390 ca        1 38Z      0.409200
     11 N6         -5.3490   -0.1730    0.2460 nb        1 38Z     -0.631000
     12 C30        -5.3690    0.6420    1.3170 ca        1 38Z      0.409200
     13 C29        -4.2070    1.1300    1.9450 ca        1 38Z     -0.228300
     14 N7         -1.5180    2.4910    2.5240 na        1 38Z      0.083800
     15 N8         -0.3110    2.6960    3.0380 nc        1 38Z     -0.223400
     16 C24         0.3640    1.5060    2.9160 ca        1 38Z     -0.065000
     17 C23         1.6860    1.1420    3.2970 ca        1 38Z     -0.031000
     18 C22         2.1120   -0.1360    3.0620 ca        1 38Z     -0.146000
     19 C19         2.9580   -2.8210    0.0110 c3        1 38Z     -0.138700
     20 C           3.5630   -1.4140   -0.0110 c3        1 38Z     -0.104400
     21 C18         2.6710   -3.1490   -1.4780 c3        1 38Z      0.165800
     22 N           2.5590   -1.8750   -2.1850 n3        1 38Z     -0.716600
     23 C1          3.2870   -0.8600   -1.4200 c3        1 38Z      0.156800
     24 C2          2.9080   -1.9740   -3.5890 c3        1 38Z      0.101800
     25 C3          2.7600   -0.6460   -4.3500 c         1 38Z      0.663100
     26 O           2.7860    0.4500   -3.7530 o         1 38Z     -0.611100
     27 N1          2.5680   -0.6960   -5.7190 n         1 38Z     -0.461800
     28 C7          2.7920   -1.8710   -6.5270 c3        1 38Z      0.083000
     29 C6          3.8610   -1.6700   -7.6290 c3        1 38Z      0.165800
     30 N2          3.6260   -0.4690   -8.4070 nh        1 38Z     -0.636000
     31 C5          3.4780    0.7180   -7.5780 c3        1 38Z      0.165800
     32 C4          2.4110    0.5300   -6.4770 c3        1 38Z      0.083000
     33 C8          4.4250   -0.3030   -9.5690 ca        1 38Z      0.139600
     34 C13         5.5230   -1.1400   -9.8630 ca        1 38Z     -0.178000
     35 C12         6.2280   -1.0000  -11.0550 ca        1 38Z     -0.063000
     36 C11         5.8700   -0.0150  -11.9810 cp        1 38Z     -0.158500
     37 C10         4.7850    0.8250  -11.6990 ca        1 38Z     -0.063000
     38 C9          4.0710    0.6860  -10.5160 ca        1 38Z     -0.178000
     39 C14         6.6270    0.1360  -13.2490 cp        1 38Z      0.699500
     40 N4          6.7740    1.4060  -13.7540 nb        1 38Z     -0.693500
     41 C17         7.4630    1.5210  -14.9040 ca        1 38Z      0.431700
     42 C16         8.0120    0.4140  -15.5770 ca        1 38Z     -0.364600
     43 C15         7.8090   -0.8440  -14.9810 ca        1 38Z      0.431700
     44 N3          7.1280   -1.0040  -13.8310 nb        1 38Z     -0.693500
     45 H1          1.1950   -3.1000    2.8420 hn        1 38Z      0.457800
     46 H2         -0.7180   -1.5340    1.5790 ha        1 38Z      0.168000
     47 H3         -1.9710   -0.4130   -0.1340 ha        1 38Z      0.150000
     48 H4         -4.1610   -1.1950   -1.1240 h4        1 38Z      0.041600
     49 H5         -6.3720    0.9200    1.6930 h4        1 38Z      0.041600
     50 H6         -4.2910    1.7830    2.8240 ha        1 38Z      0.150000
     51 H7         -2.1810    3.2400    2.5010 hn        1 38Z      0.350700
     52 H8          2.3430    1.8890    3.7730 ha        1 38Z      0.178000
     53 H9          3.1340   -0.4260    3.3550 ha        1 38Z      0.145000
     54 H10         3.6790   -3.5720    0.4360 hc        1 38Z      0.101700
     55 H11         4.6660   -1.4780    0.1710 hc        1 38Z      0.069700
     56 H12         3.1270   -0.7330    0.7600 hc        1 38Z      0.069700
     57 H13         3.5090   -3.8000   -1.8610 h1        1 38Z      0.070700
     58 H14         1.7040   -3.7070   -1.6060 h1        1 38Z      0.070700
     59 H16         4.2530   -0.5590   -1.9140 h1        1 38Z      0.083200
     60 H17         2.6330    0.0560   -1.3800 h1        1 38Z      0.083200
     61 H18         2.2050   -2.7400   -4.0270 h1        1 38Z      0.062200
     62 H19         3.9710   -2.3230   -3.7490 h1        1 38Z      0.062200
     63 H20         3.1300   -2.7410   -5.9010 h1        1 38Z      0.066450
     64 H21         1.8130   -2.1440   -7.0160 h1        1 38Z      0.066450
     65 H22         3.8020   -2.5570   -8.3210 h1        1 38Z      0.050950
     66 H23         4.8810   -1.6660   -7.1440 h1        1 38Z      0.050950
     67 H24         4.4570    1.0050   -7.0940 h1        1 38Z      0.050950
     68 H25         3.1470    1.5750   -8.2270 h1        1 38Z      0.050950
     69 H26         2.4630    1.4200   -5.7870 h1        1 38Z      0.066450
     70 H27         1.3900    0.5020   -6.9550 h1        1 38Z      0.066450
     71 H28         5.8450   -1.9210   -9.1580 ha        1 38Z      0.135000
     72 H29         7.0760   -1.6730  -11.2570 ha        1 38Z      0.153000
     73 H30         4.4840    1.6050  -12.4170 ha        1 38Z      0.153000
     74 H31         3.2120    1.3500  -10.3340 ha        1 38Z      0.135000
     75 H32         7.5750    2.5480  -15.2980 h4        1 38Z      0.031100
     76 H33         8.5680    0.5260  -16.5140 ha        1 38Z      0.159000
     77 H34         8.2030   -1.7690  -15.4400 h4        1 38Z      0.031100
     78 H52         2.7350   -2.4990    2.5800 hn        1 38Z      0.457800
@<TRIPOS>BOND
     1    1    2 2   
     2    2    3 1   
     3    2   19 1   
     4    3    4 1   
     5    3   45 1   
     6    3   78 1   
     7    4    5 ar  
     8    4   18 ar  
     9    5    6 ar  
    10    5   46 1   
    11    6    7 2   
    12    6   16 ar  
    13    7    8 1   
    14    7   14 1   
    15    8    9 ar  
    16    8   13 ar  
    17    9   10 ar  
    18    9   47 1   
    19   10   11 ar  
    20   10   48 1   
    21   11   12 ar  
    22   12   13 ar  
    23   12   49 1   
    24   13   50 1   
    25   14   15 1   
    26   14   51 1   
    27   15   16 2   
    28   16   17 ar  
    29   17   18 ar  
    30   17   52 1   
    31   18   53 1   
    32   19   20 1   
    33   19   21 1   
    34   19   54 1   
    35   20   23 1   
    36   20   55 1   
    37   20   56 1   
    38   21   22 1   
    39   21   57 1   
    40   21   58 1   
    41   22   23 1   
    42   22   24 1   
    43   23   59 1   
    44   23   60 1   
    45   24   25 1   
    46   24   61 1   
    47   24   62 1   
    48   25   26 2   
    49   25   27 1   
    50   27   28 1   
    51   27   32 1   
    52   28   29 1   
    53   28   63 1   
    54   28   64 1   
    55   29   30 1   
    56   29   65 1   
    57   29   66 1   
    58   30   31 1   
    59   30   33 1   
    60   31   32 1   
    61   31   67 1   
    62   31   68 1   
    63   32   69 1   
    64   32   70 1   
    65   33   34 ar  
    66   33   38 ar  
    67   34   35 ar  
    68   34   71 1   
    69   35   36 ar  
    70   35   72 1   
    71   36   37 ar  
    72   36   39 1   
    73   37   38 ar  
    74   37   73 1   
    75   38   74 1   
    76   39   40 ar  
    77   39   44 ar  
    78   40   41 ar  
    79   41   42 ar  
    80   41   75 1   
    81   42   43 ar  
    82   42   76 1   
    83   43   44 ar  
    84   43   77 1   
@<TRIPOS>SUBSTRUCTURE
     1 38Z         1 TEMP              0 ****  ****    0 ROOT
