@<TRIPOS>MOLECULE
390
   55    58     1     0     0
SMALL
bcc


@<TRIPOS>ATOM
      1 O1          0.2050    0.7370    0.0350 o         1 390     -0.448100
      2 C14         1.4010    0.4910   -0.0910 c         1 390      0.599700
      3 N3          2.1650    0.1720    1.1840 n4        1 390     -0.677800
      4 C15         1.3300    0.2360    2.4430 c3        1 390      0.155800
      5 C17         1.8960   -0.6890    3.4770 ca        1 390     -0.169300
      6 C22         1.1000   -1.7330    3.9570 ca        1 390     -0.095000
      7 C21         1.6040   -2.5890    4.9440 ca        1 390      0.021400
      8 CL1         0.6380   -3.8470    5.5290 cl        1 390     -0.033400
      9 C20         2.8990   -2.4090    5.4440 ca        1 390     -0.084000
     10 C19         3.6880   -1.3670    4.9550 ca        1 390     -0.106000
     11 C18         3.1920   -0.5080    3.9760 ca        1 390     -0.138000
     12 C16         1.2220    1.6950    2.9500 c3        1 390      0.115400
     13 O           2.4950    2.3040    2.9750 oh        1 390     -0.616800
     14 C13         2.1540    0.4450   -1.3090 cc        1 390     -0.304900
     15 C12         1.5640    0.4950   -2.6030 cd        1 390      0.032000
     16 N4          3.5510    0.3070   -1.4710 na        1 390     -0.171100
     17 C23         3.8330    0.3040   -2.8190 cc        1 390     -0.018300
     18 C11         2.6240    0.4070   -3.5510 cd        1 390     -0.220500
     19 C10         2.4650    0.3830   -5.0000 ca        1 390      0.536800
     20 C1          3.4130    0.9800   -5.8600 ca        1 390     -0.348900
     21 C           4.6220    1.6870   -5.4040 c3        1 390     -0.039800
     22 N2          1.3510   -0.2420   -5.4630 nb        1 390     -0.755000
     23 C3          1.1670   -0.2680   -6.8360 ca        1 390      0.879900
     24 N           2.0630    0.2760   -7.7570 nb        1 390     -0.708000
     25 C2          3.1380    0.8770   -7.2490 ca        1 390      0.473200
     26 N1         -0.0420   -0.8240   -7.2970 nh        1 390     -0.696300
     27 C4         -0.1850   -1.2390   -8.6430 ca        1 390      0.102600
     28 C9         -0.4120   -2.5990   -8.9670 ca        1 390      0.012400
     29 CL         -0.4310   -3.7870   -7.7470 cl        1 390     -0.085400
     30 C8         -0.6350   -2.9980  -10.2820 ca        1 390     -0.152000
     31 C7         -0.6190   -2.0370  -11.3080 ca        1 390      0.142900
     32 F          -0.8260   -2.4190  -12.5880 f         1 390     -0.124900
     33 C6         -0.3900   -0.6830  -11.0040 ca        1 390     -0.156000
     34 C5         -0.1810   -0.2930   -9.6880 ca        1 390     -0.066000
     35 H1          2.9300    0.8510    1.2920 hn        1 390      0.458800
     36 H2          0.2810   -0.0980    2.1650 hx        1 390      0.132700
     37 H3          0.0770   -1.8820    3.5730 ha        1 390      0.162000
     38 H4          3.2940   -3.0840    6.2220 ha        1 390      0.174000
     39 H5          4.7060   -1.2220    5.3500 ha        1 390      0.161000
     40 H6          3.8170    0.3220    3.6110 ha        1 390      0.134000
     41 H7          0.7250    1.6810    3.9540 h1        1 390      0.094700
     42 H8          0.6040    2.2970    2.2250 h1        1 390      0.094700
     43 H9          2.7950    2.3430    3.8930 ho        1 390      0.436000
     44 H10         0.4960    0.5730   -2.8160 ha        1 390      0.205000
     45 H11         4.2250    0.3600   -0.7530 hn        1 390      0.301700
     46 H12         4.8600    0.2100   -3.1920 h4        1 390      0.205000
     47 H13         4.9490    2.4410   -6.1650 hc        1 390      0.046700
     48 H14         5.4650    0.9660   -5.2520 hc        1 390      0.046700
     49 H15         4.4350    2.2260   -4.4410 hc        1 390      0.046700
     50 H16         3.8380    1.3110   -7.9900 h4        1 390      0.041100
     51 H17        -0.5270   -1.3950   -6.6310 hn        1 390      0.449800
     52 H18        -0.8170   -4.0560  -10.5280 ha        1 390      0.171000
     53 H19        -0.3810    0.0620  -11.8140 ha        1 390      0.162000
     54 H20        -0.0080    0.7730   -9.4670 ha        1 390      0.162000
     55 H32         2.5630   -0.7680    1.1010 hn        1 390      0.458800
@<TRIPOS>BOND
     1    1    2 2   
     2    2    3 1   
     3    2   14 1   
     4    3    4 1   
     5    3   35 1   
     6    3   55 1   
     7    4    5 1   
     8    4   12 1   
     9    4   36 1   
    10    5    6 ar  
    11    5   11 ar  
    12    6    7 ar  
    13    6   37 1   
    14    7    8 1   
    15    7    9 ar  
    16    9   10 ar  
    17    9   38 1   
    18   10   11 ar  
    19   10   39 1   
    20   11   40 1   
    21   12   13 1   
    22   12   41 1   
    23   12   42 1   
    24   13   43 1   
    25   14   15 2   
    26   14   16 1   
    27   15   18 1   
    28   15   44 1   
    29   16   17 1   
    30   16   45 1   
    31   17   18 2   
    32   17   46 1   
    33   18   19 1   
    34   19   20 ar  
    35   19   22 ar  
    36   20   21 1   
    37   20   25 ar  
    38   21   47 1   
    39   21   48 1   
    40   21   49 1   
    41   22   23 ar  
    42   23   24 ar  
    43   23   26 1   
    44   24   25 ar  
    45   25   50 1   
    46   26   27 1   
    47   26   51 1   
    48   27   28 ar  
    49   27   34 ar  
    50   28   29 1   
    51   28   30 ar  
    52   30   31 ar  
    53   30   52 1   
    54   31   32 1   
    55   31   33 ar  
    56   33   34 ar  
    57   33   53 1   
    58   34   54 1   
@<TRIPOS>SUBSTRUCTURE
     1 390         1 TEMP              0 ****  ****    0 ROOT
