@<TRIPOS>MOLECULE
390
   55    58     1     0     0
SMALL
bcc


@<TRIPOS>ATOM
      1 O1          0.2000    0.7310    0.0350 o         1 390     -0.448100
      2 C14         1.3970    0.4910   -0.0910 c         1 390      0.599700
      3 N3          2.1620    0.1730    1.1840 ny        1 390     -0.677800
      4 C15         1.3260    0.2320    2.4430 c3        1 390      0.155800
      5 C17         1.8960   -0.6930    3.4760 ca        1 390     -0.169300
      6 C22         1.1040   -1.7410    3.9540 ca        1 390     -0.095000
      7 C21         1.6110   -2.5960    4.9400 ca        1 390      0.021400
      8 Cl1         0.6500   -3.8580    5.5230 cl        1 390     -0.033400
      9 C20         2.9050   -2.4120    5.4400 ca        1 390     -0.084000
     10 C19         3.6900   -1.3660    4.9520 ca        1 390     -0.106000
     11 C18         3.1920   -0.5080    3.9750 ca        1 390     -0.138000
     12 C16         1.2130    1.6900    2.9520 c3        1 390      0.115400
     13 O           2.4830    2.3030    2.9790 oh        1 390     -0.616800
     14 C13         2.1510    0.4500   -1.3080 cc        1 390     -0.304900
     15 C12         1.5610    0.4960   -2.6030 cd        1 390      0.032000
     16 N4          3.5480    0.3190   -1.4700 na        1 390     -0.171100
     17 C23         3.8310    0.3170   -2.8180 cc        1 390     -0.018300
     18 C11         2.6210    0.4140   -3.5500 cd        1 390     -0.220500
     19 C10         2.4620    0.3890   -5.0000 ca        1 390      0.536800
     20 C1          3.4070    0.9910   -5.8590 ca        1 390     -0.348900
     21 C           4.6120    1.7050   -5.4030 c3        1 390     -0.039800
     22 N2          1.3510   -0.2410   -5.4630 nb        1 390     -0.755000
     23 C3          1.1680   -0.2680   -6.8350 ca        1 390      0.879900
     24 N           2.0610    0.2810   -7.7570 nb        1 390     -0.708000
     25 C2          3.1330    0.8870   -7.2480 ca        1 390      0.473200
     26 N1         -0.0380   -0.8310   -7.2960 nu        1 390     -0.696300
     27 C4         -0.1790   -1.2460   -8.6420 ca        1 390      0.102600
     28 C9         -0.3980   -2.6080   -8.9660 ca        1 390      0.012400
     29 Cl         -0.4110   -3.7960   -7.7460 cl        1 390     -0.085400
     30 C8         -0.6180   -3.0090  -10.2820 ca        1 390     -0.152000
     31 C7         -0.6080   -2.0480  -11.3070 ca        1 390      0.142900
     32 F          -0.8120   -2.4320  -12.5880 f         1 390     -0.124900
     33 C6         -0.3860   -0.6930  -11.0040 ca        1 390     -0.156000
     34 C5         -0.1790   -0.3010   -9.6880 ca        1 390     -0.066000
     35 H1          2.9240    0.8550    1.2940 hn        1 390      0.458800
     36 H2          0.2790   -0.1060    2.1640 hx        1 390      0.132700
     37 H3          0.0820   -1.8930    3.5700 ha        1 390      0.162000
     38 H4          3.3030   -3.0860    6.2170 ha        1 390      0.174000
     39 H5          4.7080   -1.2180    5.3480 ha        1 390      0.161000
     40 H6          3.8130    0.3250    3.6110 ha        1 390      0.134000
     41 H7          0.5920    2.2900    2.2280 h1        1 390      0.094700
     42 H8          0.7160    1.6720    3.9560 h1        1 390      0.094700
     43 H9          2.7830    2.3410    3.8970 ho        1 390      0.436000
     44 H10         0.4920    0.5690   -2.8160 ha        1 390      0.205000
     45 H11         4.2220    0.3760   -0.7520 hn        1 390      0.301700
     46 H12         4.8580    0.2300   -3.1920 h4        1 390      0.205000
     47 H13         4.4230    2.2430   -4.4410 hc        1 390      0.046700
     48 H14         5.4600    0.9890   -5.2510 hc        1 390      0.046700
     49 H15         4.9360    2.4600   -6.1640 hc        1 390      0.046700
     50 H16         3.8310    1.3250   -7.9890 h4        1 390      0.041100
     51 H17        -0.5200   -1.4040   -6.6300 hn        1 390      0.449800
     52 H18        -0.7950   -4.0680  -10.5270 ha        1 390      0.171000
     53 H19        -0.3810    0.0520  -11.8150 ha        1 390      0.162000
     54 H20        -0.0110    0.7660   -9.4670 ha        1 390      0.162000
     55 H32         2.5640   -0.7660    1.1000 hn        1 390      0.458800
@<TRIPOS>BOND
     1    1    2 2   
     2    2    3 1   
     3    2   14 1   
     4    3    4 1   
     5    3   35 1   
     6    3   55 1   
     7    4    5 1   
     8    4   12 1   
     9    4   36 1   
    10    5    6 ar  
    11    5   11 ar  
    12    6    7 ar  
    13    6   37 1   
    14    7    8 1   
    15    7    9 ar  
    16    9   10 ar  
    17    9   38 1   
    18   10   11 ar  
    19   10   39 1   
    20   11   40 1   
    21   12   13 1   
    22   12   41 1   
    23   12   42 1   
    24   13   43 1   
    25   14   15 2   
    26   14   16 1   
    27   15   18 1   
    28   15   44 1   
    29   16   17 1   
    30   16   45 1   
    31   17   18 2   
    32   17   46 1   
    33   18   19 1   
    34   19   20 ar  
    35   19   22 ar  
    36   20   21 1   
    37   20   25 ar  
    38   21   47 1   
    39   21   48 1   
    40   21   49 1   
    41   22   23 ar  
    42   23   24 ar  
    43   23   26 1   
    44   24   25 ar  
    45   25   50 1   
    46   26   27 1   
    47   26   51 1   
    48   27   28 ar  
    49   27   34 ar  
    50   28   29 1   
    51   28   30 ar  
    52   30   31 ar  
    53   30   52 1   
    54   31   32 1   
    55   31   33 ar  
    56   33   34 ar  
    57   33   53 1   
    58   34   54 1   
@<TRIPOS>SUBSTRUCTURE
     1 390         1 TEMP              0 ****  ****    0 ROOT
