@<TRIPOS>MOLECULE
390
   56    59     1     0     0
SMALL
bcc


@<TRIPOS>ATOM
      1 O1         -0.2760   -0.6240   -0.0050 o         1 390     -0.432100
      2 C14         0.9380   -0.5780   -0.1840 c         1 390      0.591700
      3 N3          1.7680   -1.1000    0.9630 n4        1 390     -0.673800
      4 C15         1.9150   -0.0900    2.0860 c3        1 390      0.167800
      5 C17         2.2140   -0.8070    3.3670 ca        1 390     -0.185300
      6 C22         1.2940   -0.7260    4.4170 ca        1 390     -0.091000
      7 C21         1.5720   -1.3670    5.6310 ca        1 390      0.022400
      8 CL1         0.4650   -1.2610    6.9010 cl        1 390     -0.017400
      9 C20         2.7590   -2.0930    5.7910 ca        1 390     -0.073000
     10 C19         3.6670   -2.1750    4.7340 ca        1 390     -0.101000
     11 C18         3.4010   -1.5350    3.5260 ca        1 390     -0.135000
     12 C16         2.9820    0.9760    1.7520 c3        1 390      0.113400
     13 O           4.1240    0.3780    1.1720 oh        1 390     -0.651800
     14 C13         1.6010   -0.1220   -1.3790 cc        1 390     -0.275900
     15 C12         0.9180    0.1300   -2.6000 cd        1 390      0.014000
     16 N4          2.9710    0.1390   -1.5800 na        1 390     -0.138100
     17 C23         3.1500    0.5620   -2.8720 cc        1 390     -0.013300
     18 C11         1.8950    0.5670   -3.5420 cd        1 390     -0.272500
     19 C10         1.6450    0.9230   -4.9280 ca        1 390      0.547800
     20 C1          2.3570    1.9670   -5.5780 ca        1 390     -0.235900
     21 C           3.3960    2.7820   -4.9240 c3        1 390     -0.072800
     22 N2          0.6730    0.2160   -5.5790 nb        1 390     -0.668000
     23 C3          0.4400    0.5690   -6.8760 ca        1 390      0.708900
     24 N           1.0730    1.5520   -7.6000 nb        1 390     -0.654000
     25 C2          2.0170    2.2300   -6.9300 ca        1 390      0.460200
     26 N1         -0.6250   -0.2020   -7.6020 n4        1 390     -0.598100
     27 C4         -0.0560   -1.0990   -8.6100 ca        1 390     -0.092400
     28 C9          0.0930   -2.4770   -8.3330 ca        1 390      0.065400
     29 CL         -0.3590   -3.1120   -6.8290 cl        1 390     -0.032400
     30 C8          0.6030   -3.3290   -9.3080 ca        1 390     -0.153000
     31 C7          0.9730   -2.8090  -10.5670 ca        1 390      0.218900
     32 F           1.4680   -3.6320  -11.5070 f         1 390     -0.081900
     33 C6          0.8270   -1.4320  -10.8390 ca        1 390     -0.154000
     34 C5          0.3180   -0.5850   -9.8660 ca        1 390     -0.043000
     35 H1          1.2930   -1.9280    1.3540 hn        1 390      0.466800
     36 H2          0.9140    0.4390    2.1720 hx        1 390      0.125700
     37 H3          0.3570   -0.1560    4.3020 ha        1 390      0.162000
     38 H4          2.9770   -2.5980    6.7480 ha        1 390      0.182000
     39 H5          4.6010   -2.7470    4.8610 ha        1 390      0.168000
     40 H6          4.1300   -1.5970    2.7040 ha        1 390      0.127000
     41 H7          3.2220    1.5370    2.6930 h1        1 390      0.094200
     42 H8          2.5820    1.6900    0.9800 h1        1 390      0.094200
     43 H9          4.8340    0.3600    1.8280 ho        1 390      0.457000
     44 H10        -0.1540    0.0070   -2.7630 ha        1 390      0.198000
     45 H11         3.6770    0.1240   -0.8790 hn        1 390      0.340700
     46 H12         4.1440    0.8190   -3.2600 h4        1 390      0.208000
     47 H13         4.3950    2.2790   -5.0100 hc        1 390      0.075367
     48 H14         3.4780    3.7890   -5.4100 hc        1 390      0.075367
     49 H15         3.1640    2.9380   -3.8400 hc        1 390      0.075367
     50 H16         2.5270    3.0330   -7.5040 h4        1 390      0.077100
     51 H17        -1.2480    0.4740   -8.0700 hn        1 390      0.483300
     52 H18         0.7170   -4.4100   -9.1100 ha        1 390      0.201000
     53 H19         1.1170   -1.0380  -11.8280 ha        1 390      0.195000
     54 H20         0.2160    0.4920  -10.0920 ha        1 390      0.179000
     55 H32         2.7060   -1.3780    0.6550 hn        1 390      0.466800
     56 H121       -1.1700   -0.7550   -6.9180 hn        1 390      0.483300
@<TRIPOS>BOND
     1    1    2 2   
     2    2    3 1   
     3    2   14 1   
     4    3    4 1   
     5    3   35 1   
     6    3   55 1   
     7    4    5 1   
     8    4   12 1   
     9    4   36 1   
    10    5    6 ar  
    11    5   11 ar  
    12    6    7 ar  
    13    6   37 1   
    14    7    8 1   
    15    7    9 ar  
    16    9   10 ar  
    17    9   38 1   
    18   10   11 ar  
    19   10   39 1   
    20   11   40 1   
    21   12   13 1   
    22   12   41 1   
    23   12   42 1   
    24   13   43 1   
    25   14   15 2   
    26   14   16 1   
    27   15   18 1   
    28   15   44 1   
    29   16   17 1   
    30   16   45 1   
    31   17   18 2   
    32   17   46 1   
    33   18   19 1   
    34   19   20 ar  
    35   19   22 ar  
    36   20   21 1   
    37   20   25 ar  
    38   21   47 1   
    39   21   48 1   
    40   21   49 1   
    41   22   23 ar  
    42   23   24 ar  
    43   23   26 1   
    44   24   25 ar  
    45   25   50 1   
    46   26   27 1   
    47   26   51 1   
    48   26   56 1   
    49   27   28 ar  
    50   27   34 ar  
    51   28   29 1   
    52   28   30 ar  
    53   30   31 ar  
    54   30   52 1   
    55   31   32 1   
    56   31   33 ar  
    57   33   34 ar  
    58   33   53 1   
    59   34   54 1   
@<TRIPOS>SUBSTRUCTURE
     1 390         1 TEMP              0 ****  ****    0 ROOT
