@<TRIPOS>MOLECULE
391
   45    49     1     0     0
SMALL
bcc


@<TRIPOS>ATOM
      1 C36        -0.0200   -0.0250   -0.2430 ca        1 391     -0.101000
      2 C35         1.3140    0.3190   -0.3050 ca        1 391      0.064100
      3 O39         2.2970    0.1500    0.6640 os        1 391     -0.330900
      4 C38         3.5270    0.6710    0.1060 c3        1 391      0.320200
      5 O37         3.2370    1.1630   -1.2240 os        1 391     -0.330900
      6 C34         1.8850    0.9350   -1.4520 ca        1 391      0.058100
      7 C33         1.1420    1.2250   -2.5780 ca        1 391     -0.108000
      8 C32        -0.2190    0.8740   -2.5410 ca        1 391     -0.126000
      9 C31        -0.7680    0.2780   -1.4020 ca        1 391      0.091100
     10 O28        -2.1560    0.0940   -1.3990 os        1 391     -0.358400
     11 C23        -2.6410   -1.2010   -1.3480 ca        1 391      0.681600
     12 N22        -1.8130   -2.2740   -1.2840 nb        1 391     -0.790000
     13 C24        -4.0560   -1.3050   -1.3710 ca        1 391     -0.411600
     14 C25        -4.5950   -2.6050   -1.3270 ca        1 391      0.488600
     15 C27        -6.0800   -2.7740   -1.3520 c3        1 391     -0.156400
     16 N26        -3.8150   -3.7190   -1.2630 nb        1 391     -0.711000
     17 C21        -2.4650   -3.4840   -1.2430 ca        1 391      0.874300
     18 O17        -1.7320   -4.6660   -1.1710 os        1 391     -0.333400
     19 C14        -0.3400   -4.5460   -1.0940 ca        1 391      0.088100
     20 C15         0.4120   -4.1670   -2.2100 ca        1 391     -0.097500
     21 C16         1.8000   -4.1880   -2.1340 ca        1 391     -0.139000
     22 C13         0.2750   -4.9460    0.0970 ca        1 391     -0.097500
     23 C12         1.6630   -4.9780    0.1690 ca        1 391     -0.139000
     24 C11         2.4450   -4.5920   -0.9440 ca        1 391      0.017800
     25 N3          3.8470   -4.6030   -0.8620 na        1 391     -0.143000
     26 C4          4.7510   -4.7550   -1.9250 cc        1 391     -0.244600
     27 C5          6.0340   -4.6770   -1.3600 cd        1 391      0.294200
     28 NFE         5.9420   -4.4760    0.0200 nd        1 391     -0.663000
     29 C2          4.6270   -4.4340    0.3030 cc        1 391      0.400400
     30 H36        -0.4740   -0.5080    0.6300 ha        1 391      0.171000
     31 H381        4.2650   -0.1650    0.0250 h2        1 391      0.077700
     32 H382        3.8680    1.5290    0.7370 h2        1 391      0.077700
     33 H33         1.5850    1.7010   -3.4620 ha        1 391      0.161000
     34 H32        -0.8610    1.0820   -3.4090 ha        1 391      0.155000
     35 H24        -4.6810   -0.4080   -1.4200 ha        1 391      0.172000
     36 H271       -6.3860   -3.3800   -2.2410 hc        1 391      0.063700
     37 H272       -6.5800   -1.7770   -1.4030 hc        1 391      0.063700
     38 H273       -6.4250   -3.3060   -0.4300 hc        1 391      0.063700
     39 H15        -0.0920   -3.8420   -3.1320 ha        1 391      0.156500
     40 H16         2.3910   -3.8770   -3.0100 ha        1 391      0.147500
     41 H13        -0.3380   -5.2450    0.9610 ha        1 391      0.156500
     42 H12         2.1440   -5.3080    1.1030 ha        1 391      0.147500
     43 H4          4.4240   -4.9150   -2.9500 h4        1 391      0.181000
     44 H5          6.9990   -4.7540   -1.8590 h4        1 391      0.045100
     45 H2          4.1830   -4.2810    1.2910 h5        1 391      0.065100
@<TRIPOS>BOND
     1    1    2 ar  
     2    1    9 ar  
     3    1   30 1   
     4    2    3 1   
     5    2    6 ar  
     6    3    4 1   
     7    4    5 1   
     8    4   31 1   
     9    4   32 1   
    10    5    6 1   
    11    6    7 ar  
    12    7    8 ar  
    13    7   33 1   
    14    8    9 ar  
    15    8   34 1   
    16    9   10 1   
    17   10   11 1   
    18   11   12 ar  
    19   11   13 ar  
    20   12   17 ar  
    21   13   14 ar  
    22   13   35 1   
    23   14   15 1   
    24   14   16 ar  
    25   15   36 1   
    26   15   37 1   
    27   15   38 1   
    28   16   17 ar  
    29   17   18 1   
    30   18   19 1   
    31   19   20 ar  
    32   19   22 ar  
    33   20   21 ar  
    34   20   39 1   
    35   21   24 ar  
    36   21   40 1   
    37   22   23 ar  
    38   22   41 1   
    39   23   24 ar  
    40   23   42 1   
    41   24   25 1   
    42   25   26 1   
    43   25   29 1   
    44   26   27 2   
    45   26   43 1   
    46   27   28 1   
    47   27   44 1   
    48   28   29 2   
    49   29   45 1   
@<TRIPOS>SUBSTRUCTURE
     1 391         1 TEMP              0 ****  ****    0 ROOT
