@<TRIPOS>MOLECULE
391
   45    39     1     0     0
SMALL
bcc


@<TRIPOS>ATOM
      1 C36         0.6110    5.0110    1.2580 c1        1 391     -0.117000
      2 C35        -0.0840    5.8390    2.1470 c1        1 391      0.017000
      3 O39        -0.7210    7.1020    1.9740 os        1 391     -0.212000
      4 C38        -1.2050    7.5170    3.2200 c3        1 391      0.099000
      5 O37        -0.9070    6.5150    4.1530 os        1 391     -0.212000
      6 C34        -0.2360    5.4610    3.4680 c2        1 391      0.016000
      7 C33         0.3050    4.2500    3.9160 c2        1 391     -0.107000
      8 C32         0.9940    3.4290    3.0340 c1        1 391     -0.120000
      9 C31         1.1470    3.8100    1.7020 c1        1 391      0.023000
     10 O28         1.9360    3.0350    0.8410 os        1 391     -0.121000
     11 C23         1.3350    1.7800    0.6590 c2        1 391      0.170000
     12 N22         2.0980    0.6970    0.4490 n2        1 391     -0.170000
     13 C24        -0.0250    1.6770    0.5970 c1        1 391     -0.321000
     14 C25        -0.6050    0.4730    0.3230 c1        1 391      0.080000
     15 C27        -2.1140    0.3530    0.2760 c3        1 391     -0.181000
     16 N26         0.1600   -0.6070    0.1140 n1        1 391     -0.234000
     17 C21         1.5180   -0.5040    0.1750 c1        1 391      0.171000
     18 O17         2.3180   -1.6320   -0.0610 os        1 391     -0.117000
     19 C14         1.5900   -2.5760   -0.7950 c2        1 391      0.045000
     20 C15         0.9530   -3.6190   -0.1430 c2        1 391     -0.096000
     21 C16         0.3010   -4.5980   -0.8730 c1        1 391     -0.140000
     22 C13         1.5740   -2.5130   -2.1800 c1        1 391     -0.101000
     23 C12         0.9230   -3.4930   -2.9100 c1        1 391     -0.140000
     24 C11         0.2860   -4.5350   -2.2570 c1        1 391      0.063000
     25 N3         -0.3970   -5.4460   -2.9600 n2        1 391     -0.130000
     26 C4         -0.0600   -5.9260   -4.1600 c1        1 391     -0.163000
     27 C5         -1.0290   -6.8110   -4.5480 c1        1 391     -0.163000
     28 NFE        -1.9500   -6.8630   -3.5830 n2        1 391     -0.130000
     29 C2         -1.5680   -6.0200   -2.5930 c1        1 391     -0.087000
     30 H36         0.7180    5.2770    0.3260 ha        1 391      0.174000
     31 H381       -2.1770    7.6290    3.1670 h2        1 391      0.117000
     32 H382       -0.7510    8.3460    3.4820 h2        1 391      0.117000
     33 H33         0.1980    3.9840    4.8480 ha        1 391      0.164000
     34 H32         1.3700    2.5860    3.3460 ha        1 391      0.161000
     35 H24        -0.5810    2.4730    0.7110 ha        1 391      0.168000
     36 H271       -2.4890    0.5990    1.1480 hc        1 391      0.102333
     37 H272       -2.4680    0.9540   -0.4130 hc        1 391      0.102333
     38 H273       -2.3610   -0.5710    0.0620 hc        1 391      0.102333
     39 H15         0.9630   -3.6630    0.8330 ha        1 391      0.155000
     40 H16        -0.1480   -5.3330   -0.4130 ha        1 391      0.146000
     41 H13         2.0230   -1.7790   -2.6400 ha        1 391      0.158000
     42 H12         0.9120   -3.4490   -3.8850 ha        1 391      0.148000
     43 H4          0.7380   -5.6880   -4.6700 DU        1 391      0.188000
     44 H5         -1.0440   -7.3150   -5.3840 DU        1 391      0.188000
     45 H2         -2.0510   -5.8560   -1.7610 DU        1 391      0.188000
@<TRIPOS>BOND
     1    1    9 1   
     2    1   30 1   
     3    2    3 1   
     4    2    6 1   
     5    3    4 1   
     6    4    5 1   
     7    4   31 1   
     8    4   32 1   
     9    5    6 1   
    10    6    7 1   
    11    7    8 1   
    12    7   33 1   
    13    8   34 1   
    14    9   10 1   
    15   10   11 1   
    16   11   12 1   
    17   11   13 1   
    18   12   17 1   
    19   13   35 1   
    20   14   15 1   
    21   14   16 1   
    22   15   36 1   
    23   15   37 1   
    24   15   38 1   
    25   17   18 1   
    26   18   19 1   
    27   19   20 1   
    28   19   22 1   
    29   20   21 1   
    30   20   39 1   
    31   21   40 1   
    32   22   41 1   
    33   23   24 1   
    34   23   42 1   
    35   25   26 1   
    36   25   29 1   
    37   26   27 1   
    38   27   28 1   
    39   28   29 1   
@<TRIPOS>SUBSTRUCTURE
     1 391         1 TEMP              0 ****  ****    0 ROOT
