@<TRIPOS>MOLECULE
391
   45    49     1     0     0
SMALL
bcc


@<TRIPOS>ATOM
      1 C36        -0.0210   -0.0360   -0.2170 ca        1 391     -0.101000
      2 C35         1.3120    0.3100   -0.2750 ca        1 391      0.064100
      3 O39         2.2950    0.1300    0.6920 os        1 391     -0.330900
      4 C38         3.5250    0.6580    0.1420 c3        1 391      0.320200
      5 O37         3.2350    1.1660   -1.1820 os        1 391     -0.330900
      6 C34         1.8830    0.9400   -1.4130 ca        1 391      0.058100
      7 C33         1.1400    1.2440   -2.5370 ca        1 391     -0.108000
      8 C32        -0.2200    0.8910   -2.5040 ca        1 391     -0.126000
      9 C31        -0.7690    0.2810   -1.3730 ca        1 391      0.091100
     10 O28        -2.1580    0.0960   -1.3730 os        1 391     -0.358400
     11 C23        -2.6420   -1.2000   -1.3370 ca        1 391      0.681600
     12 N22        -1.8130   -2.2730   -1.2860 nb        1 391     -0.790000
     13 C24        -4.0560   -1.3040   -1.3620 ca        1 391     -0.411600
     14 C25        -4.5940   -2.6050   -1.3350 ca        1 391      0.488600
     15 C27        -6.0790   -2.7750   -1.3610 c3        1 391     -0.156400
     16 N26        -3.8140   -3.7190   -1.2830 nb        1 391     -0.711000
     17 C21        -2.4640   -3.4830   -1.2600 ca        1 391      0.874300
     18 O17        -1.7300   -4.6660   -1.2020 os        1 391     -0.333400
     19 C14        -0.3390   -4.5470   -1.1220 ca        1 391      0.088100
     20 C15         0.4150   -4.1530   -2.2320 ca        1 391     -0.097500
     21 C16         1.8030   -4.1740   -2.1550 ca        1 391     -0.139000
     22 C13         0.2750   -4.9600    0.0660 ca        1 391     -0.097500
     23 C12         1.6630   -4.9930    0.1380 ca        1 391     -0.139000
     24 C11         2.4460   -4.5920   -0.9680 ca        1 391      0.017800
     25 N3          3.8490   -4.6040   -0.8840 na        1 391     -0.143000
     26 C4          4.7540   -4.7430   -1.9480 cc        1 391     -0.244600
     27 C5          6.0360   -4.6710   -1.3810 cd        1 391      0.294200
     28 NFE         5.9420   -4.4870    0.0010 nd        1 391     -0.663000
     29 C2          4.6270   -4.4490    0.2830 cc        1 391      0.400400
     30 H36        -0.4750   -0.5290    0.6500 ha        1 391      0.171000
     31 H381        4.2630   -0.1760    0.0510 h2        1 391      0.077700
     32 H382        3.8650    1.5090    0.7830 h2        1 391      0.077700
     33 H33         1.5840    1.7300   -3.4140 ha        1 391      0.161000
     34 H32        -0.8620    1.1090   -3.3700 ha        1 391      0.155000
     35 H24        -4.6820   -0.4070   -1.4010 ha        1 391      0.172000
     36 H271       -6.3850   -3.3750   -2.2550 hc        1 391      0.063700
     37 H272       -6.5800   -1.7770   -1.4070 hc        1 391      0.063700
     38 H273       -6.4250   -3.3120   -0.4430 hc        1 391      0.063700
     39 H15        -0.0880   -3.8170   -3.1510 ha        1 391      0.156500
     40 H16         2.3940   -3.8520   -3.0260 ha        1 391      0.147500
     41 H13        -0.3390   -5.2700    0.9240 ha        1 391      0.156500
     42 H12         2.1430   -5.3340    1.0690 ha        1 391      0.147500
     43 H4          4.4280   -4.8900   -2.9760 h4        1 391      0.181000
     44 H5          7.0020   -4.7410   -1.8790 h4        1 391      0.045100
     45 H2          4.1810   -4.3080    1.2730 h5        1 391      0.065100
@<TRIPOS>BOND
     1    1    2 ar  
     2    1    9 ar  
     3    1   30 1   
     4    2    3 1   
     5    2    6 ar  
     6    3    4 1   
     7    4    5 1   
     8    4   31 1   
     9    4   32 1   
    10    5    6 1   
    11    6    7 ar  
    12    7    8 ar  
    13    7   33 1   
    14    8    9 ar  
    15    8   34 1   
    16    9   10 1   
    17   10   11 1   
    18   11   12 ar  
    19   11   13 ar  
    20   12   17 ar  
    21   13   14 ar  
    22   13   35 1   
    23   14   15 1   
    24   14   16 ar  
    25   15   36 1   
    26   15   37 1   
    27   15   38 1   
    28   16   17 ar  
    29   17   18 1   
    30   18   19 1   
    31   19   20 ar  
    32   19   22 ar  
    33   20   21 ar  
    34   20   39 1   
    35   21   24 ar  
    36   21   40 1   
    37   22   23 ar  
    38   22   41 1   
    39   23   24 ar  
    40   23   42 1   
    41   24   25 1   
    42   25   26 1   
    43   25   29 1   
    44   26   27 2   
    45   26   43 1   
    46   27   28 1   
    47   27   44 1   
    48   28   29 2   
    49   29   45 1   
@<TRIPOS>SUBSTRUCTURE
     1 391         1 TEMP              0 ****  ****    0 ROOT
