@<TRIPOS>MOLECULE
391
   45    49     1     0     0
SMALL
bcc


@<TRIPOS>ATOM
      1 C36        -1.5280   -1.5660   -1.0140 ca        1 391     -0.101000
      2 C35        -2.6370   -2.3190   -0.6910 ca        1 391      0.064100
      3 O39        -3.4050   -3.1270   -1.5220 os        1 391     -0.330900
      4 C38        -4.4490   -3.7000   -0.6990 c3        1 391      0.320200
      5 O37        -4.2780   -3.1950    0.6470 os        1 391     -0.330900
      6 C34        -3.1680   -2.3600    0.6270 ca        1 391      0.058100
      7 C33        -2.6050   -1.6510    1.6690 ca        1 391     -0.108000
      8 C32        -1.4670   -0.8830    1.3650 ca        1 391     -0.126000
      9 C31        -0.9630   -0.8460    0.0620 ca        1 391      0.091100
     10 O28         0.0840    0.0530   -0.1780 os        1 391     -0.358400
     11 C23         1.3090   -0.4610   -0.5600 ca        1 391      0.681600
     12 N22         1.5090   -1.7940   -0.7190 nb        1 391     -0.790000
     13 C24         2.3220    0.5110   -0.7630 ca        1 391     -0.411600
     14 C25         3.5900    0.0330   -1.1470 ca        1 391      0.488600
     15 C27         4.6960    1.0120   -1.3720 c3        1 391     -0.156400
     16 N26         3.8500   -1.2920   -1.3220 nb        1 391     -0.711000
     17 C21         2.7870   -2.1280   -1.0990 ca        1 391      0.874300
     18 O17         3.1240   -3.4640   -1.3020 os        1 391     -0.333400
     19 C14         2.1020   -4.4070   -1.1520 ca        1 391      0.088100
     20 C15         1.6110   -4.7410    0.1130 ca        1 391     -0.097500
     21 C16         0.6910   -5.7770    0.2360 ca        1 391     -0.139000
     22 C13         1.6860   -5.0930   -2.2990 ca        1 391     -0.097500
     23 C12         0.7750   -6.1360   -2.1750 ca        1 391     -0.139000
     24 C11         0.2590   -6.4860   -0.9070 ca        1 391      0.017800
     25 N3         -0.6790   -7.5260   -0.7870 na        1 391     -0.143000
     26 C4         -0.9060   -8.3290    0.3420 cc        1 391     -0.244600
     27 C5         -1.9470   -9.2040   -0.0050 cd        1 391      0.294200
     28 NFE        -2.3690   -8.9560   -1.3140 nd        1 391     -0.663000
     29 C2         -1.6010   -7.9500   -1.7690 cc        1 391      0.400400
     30 H36        -1.1010   -1.5300   -2.0230 ha        1 391      0.171000
     31 H381       -4.3230   -4.8100   -0.6830 h2        1 391      0.077700
     32 H382       -5.4380   -3.3520   -1.0860 h2        1 391      0.077700
     33 H33        -3.0180   -1.6840    2.6850 ha        1 391      0.161000
     34 H32        -0.9770   -0.2970    2.1560 ha        1 391      0.155000
     35 H24         2.1110    1.5760   -0.6240 ha        1 391      0.172000
     36 H271        5.5510    0.7980   -0.6820 hc        1 391      0.063700
     37 H272        5.0690    0.9410   -2.4240 hc        1 391      0.063700
     38 H273        4.3330    2.0520   -1.1870 hc        1 391      0.063700
     39 H15         1.9400   -4.1800    1.0000 ha        1 391      0.156500
     40 H16         0.2960   -6.0300    1.2320 ha        1 391      0.147500
     41 H13         2.0890   -4.8150   -3.2840 ha        1 391      0.156500
     42 H12         0.4610   -6.6830   -3.0780 ha        1 391      0.147500
     43 H4         -0.3240   -8.2280    1.2550 h4        1 391      0.181000
     44 H5         -2.4070   -9.9830    0.6010 h4        1 391      0.045100
     45 H2         -1.6610   -7.4870   -2.7590 h5        1 391      0.065100
@<TRIPOS>BOND
     1    1    2 ar  
     2    1    9 ar  
     3    1   30 1   
     4    2    3 1   
     5    2    6 ar  
     6    3    4 1   
     7    4    5 1   
     8    4   31 1   
     9    4   32 1   
    10    5    6 1   
    11    6    7 ar  
    12    7    8 ar  
    13    7   33 1   
    14    8    9 ar  
    15    8   34 1   
    16    9   10 1   
    17   10   11 1   
    18   11   12 ar  
    19   11   13 ar  
    20   12   17 ar  
    21   13   14 ar  
    22   13   35 1   
    23   14   15 1   
    24   14   16 ar  
    25   15   36 1   
    26   15   37 1   
    27   15   38 1   
    28   16   17 ar  
    29   17   18 1   
    30   18   19 1   
    31   19   20 ar  
    32   19   22 ar  
    33   20   21 ar  
    34   20   39 1   
    35   21   24 ar  
    36   21   40 1   
    37   22   23 ar  
    38   22   41 1   
    39   23   24 ar  
    40   23   42 1   
    41   24   25 1   
    42   25   26 1   
    43   25   29 1   
    44   26   27 2   
    45   26   43 1   
    46   27   28 1   
    47   27   44 1   
    48   28   29 2   
    49   29   45 1   
@<TRIPOS>SUBSTRUCTURE
     1 391         1 TEMP              0 ****  ****    0 ROOT
