@<TRIPOS>MOLECULE
392
   45    46     1     0     0
SMALL
bcc


@<TRIPOS>ATOM
      1 CAJ        -0.0280    0.1600   -0.1460 ca        1 392     -0.106000
      2 CAT         1.3550    0.3590   -0.2180 ca        1 392      0.027400
      3 ClC         2.1070    0.4590   -1.7260 cl        1 392     -0.008400
      4 CAI         2.1170    0.4790    0.9510 ca        1 392     -0.062000
      5 CAU         1.4840    0.3980    2.1980 ca        1 392      0.027400
      6 ClD         2.3920    0.5450    3.6130 cl        1 392     -0.008400
      7 CAK         0.1020    0.2000    2.2810 ca        1 392     -0.106000
      8 CAW        -0.6480    0.0810    1.1050 ca        1 392     -0.189300
      9 CAO        -2.1240   -0.0740    1.1870 c3        1 392      0.185100
     10 NAP        -2.4930   -1.5420    1.2330 ny        1 392     -0.772000
     11 CAM        -3.9640   -1.7410    1.3160 c3        1 392      0.102800
     12 CAL        -4.3750   -3.2130    1.3660 c3        1 392     -0.134400
     13 CAN        -5.8990   -3.2720    1.4490 c3        1 392      0.109800
     14 NAQ        -6.4390   -4.6540    1.5030 ny        1 392     -0.692800
     15 CAS        -8.0240   -4.6360    1.5780 c         1 392      0.633100
     16 OAA        -8.4900   -3.5050    1.4740 o         1 392     -0.467100
     17 NAR        -8.6180   -5.8290    1.9090 ns        1 392     -0.335100
     18 CAX        -9.9930   -6.0310    1.5870 ca        1 392     -0.091400
     19 CAH       -10.9930   -5.1640    2.0750 ca        1 392     -0.060000
     20 CAF       -12.3310   -5.4420    1.8300 ca        1 392     -0.137000
     21 CAE       -12.7020   -6.5720    1.0940 ca        1 392     -0.037000
     22 CAG       -11.7330   -7.4320    0.5890 ca        1 392     -0.186000
     23 CAV       -10.3770   -7.1630    0.8190 ca        1 392      0.141100
     24 OAB        -9.3670   -7.9620    0.3370 oh        1 392     -0.533100
     25 H1         -0.6210    0.0950   -1.0730 ha        1 392      0.153000
     26 H2          3.2090    0.6440    0.8900 ha        1 392      0.197000
     27 H3         -0.3890    0.1660    3.2670 ha        1 392      0.153000
     28 H4         -2.5340    0.4080    2.1210 hx        1 392      0.114700
     29 H5         -2.6320    0.3740    0.2840 hx        1 392      0.114700
     30 H6         -2.1200   -2.0000    0.3920 hn        1 392      0.455800
     31 H8         -4.3340   -1.2080    2.2410 hx        1 392      0.119700
     32 H9         -4.4310   -1.2440    0.4140 hx        1 392      0.119700
     33 H10        -4.0130   -3.7490    0.4470 hc        1 392      0.084700
     34 H11        -3.9150   -3.7140    2.2610 hc        1 392      0.084700
     35 H12        -6.3590   -2.7590    0.5510 hx        1 392      0.128700
     36 H13        -6.2630   -2.7280    2.3710 hx        1 392      0.128700
     37 H14        -6.0580   -5.1420    2.3180 hn        1 392      0.451300
     38 H15        -8.0750   -6.6740    1.8700 hn        1 392      0.348500
     39 H16       -10.7130   -4.2650    2.6480 ha        1 392      0.159000
     40 H17       -13.1080   -4.7640    2.2220 ha        1 392      0.172000
     41 H18       -13.7700   -6.7830    0.9110 ha        1 392      0.173000
     42 H19       -12.0220   -8.3220    0.0070 ha        1 392      0.169000
     43 H20        -9.7640   -8.7440   -0.0820 ho        1 392      0.463000
     44 HAP2       -2.0320   -1.9690    2.0470 hn        1 392      0.455800
     45 HAQ2       -6.1700   -5.1680    0.6600 hn        1 392      0.451300
@<TRIPOS>BOND
     1    1    2 ar  
     2    1    8 ar  
     3    1   25 1   
     4    2    3 1   
     5    2    4 ar  
     6    4    5 ar  
     7    4   26 1   
     8    5    6 1   
     9    5    7 ar  
    10    7    8 ar  
    11    7   27 1   
    12    8    9 1   
    13    9   10 1   
    14    9   28 1   
    15    9   29 1   
    16   10   11 1   
    17   10   30 1   
    18   10   44 1   
    19   11   12 1   
    20   11   31 1   
    21   11   32 1   
    22   12   13 1   
    23   12   33 1   
    24   12   34 1   
    25   13   14 1   
    26   13   35 1   
    27   13   36 1   
    28   14   15 1   
    29   14   37 1   
    30   14   45 1   
    31   15   16 2   
    32   15   17 1   
    33   17   18 1   
    34   17   38 1   
    35   18   19 ar  
    36   18   23 ar  
    37   19   20 ar  
    38   19   39 1   
    39   20   21 ar  
    40   20   40 1   
    41   21   22 ar  
    42   21   41 1   
    43   22   23 ar  
    44   22   42 1   
    45   23   24 1   
    46   24   43 1   
@<TRIPOS>SUBSTRUCTURE
     1 392         1 TEMP              0 ****  ****    0 ROOT
