@<TRIPOS>MOLECULE
392
   45    46     1     0     0
SMALL
bcc


@<TRIPOS>ATOM
      1 CAJ        -0.0290    0.1620   -0.1490 ca        1 392     -0.106000
      2 CAT         1.3540    0.3610   -0.2200 ca        1 392      0.027400
      3 CLC         2.1070    0.4590   -1.7270 cl        1 392     -0.008400
      4 CAI         2.1150    0.4830    0.9500 ca        1 392     -0.062000
      5 CAU         1.4810    0.4050    2.1970 ca        1 392      0.027400
      6 CLD         2.3880    0.5550    3.6120 cl        1 392     -0.008400
      7 CAK         0.0990    0.2060    2.2790 ca        1 392     -0.106000
      8 CAW        -0.6500    0.0840    1.1030 ca        1 392     -0.189300
      9 CAO        -2.1270   -0.0720    1.1830 c3        1 392      0.185100
     10 NAP        -2.4940   -1.5400    1.2330 n4        1 392     -0.772000
     11 CAM        -3.9660   -1.7400    1.3130 c3        1 392      0.102800
     12 CAL        -4.3750   -3.2120    1.3670 c3        1 392     -0.134400
     13 CAN        -5.8990   -3.2710    1.4470 c3        1 392      0.109800
     14 NAQ        -6.4390   -4.6540    1.5050 n4        1 392     -0.692800
     15 CAS        -8.0230   -4.6370    1.5760 c         1 392      0.633100
     16 OAA        -8.4910   -3.5060    1.4660 o         1 392     -0.467100
     17 NAR        -8.6170   -5.8280    1.9130 n         1 392     -0.335100
     18 CAX        -9.9910   -6.0330    1.5890 ca        1 392     -0.091400
     19 CAH       -10.9930   -5.1650    2.0710 ca        1 392     -0.060000
     20 CAF       -12.3310   -5.4450    1.8250 ca        1 392     -0.137000
     21 CAE       -12.6990   -6.5800    1.0950 ca        1 392     -0.037000
     22 CAG       -11.7280   -7.4420    0.5960 ca        1 392     -0.186000
     23 CAV       -10.3730   -7.1700    0.8270 ca        1 392      0.141100
     24 OAB        -9.3610   -7.9700    0.3500 oh        1 392     -0.533100
     25 H1         -0.6210    0.0940   -1.0750 ha        1 392      0.153000
     26 H2          3.2070    0.6500    0.8890 ha        1 392      0.197000
     27 H3         -0.3930    0.1730    3.2640 ha        1 392      0.153000
     28 H4         -2.6340    0.3750    0.2800 hx        1 392      0.114700
     29 H5         -2.5380    0.4120    2.1160 hx        1 392      0.114700
     30 H6         -2.1200   -1.9990    0.3930 hn        1 392      0.455800
     31 H8         -4.3370   -1.2050    2.2370 hx        1 392      0.119700
     32 H9         -4.4310   -1.2450    0.4100 hx        1 392      0.119700
     33 H10        -3.9170   -3.7100    2.2640 hc        1 392      0.084700
     34 H11        -4.0110   -3.7500    0.4500 hc        1 392      0.084700
     35 H12        -6.2640   -2.7250    2.3680 hx        1 392      0.128700
     36 H13        -6.3580   -2.7620    0.5470 hx        1 392      0.128700
     37 H14        -6.1670   -5.1690    0.6630 hn        1 392      0.451300
     38 H15        -8.0740   -6.6740    1.8790 hn        1 392      0.348500
     39 H16       -10.7140   -4.2620    2.6390 ha        1 392      0.159000
     40 H17       -13.1080   -4.7660    2.2120 ha        1 392      0.172000
     41 H18       -13.7670   -6.7930    0.9100 ha        1 392      0.173000
     42 H19       -12.0160   -8.3350    0.0180 ha        1 392      0.169000
     43 H20        -9.7570   -8.7550   -0.0650 ho        1 392      0.463000
     44 HAP2       -2.0340   -1.9650    2.0480 hn        1 392      0.455800
     45 HAQ2       -6.0590   -5.1390    2.3210 hn        1 392      0.451300
@<TRIPOS>BOND
     1    1    2 ar  
     2    1    8 ar  
     3    1   25 1   
     4    2    3 1   
     5    2    4 ar  
     6    4    5 ar  
     7    4   26 1   
     8    5    6 1   
     9    5    7 ar  
    10    7    8 ar  
    11    7   27 1   
    12    8    9 1   
    13    9   10 1   
    14    9   28 1   
    15    9   29 1   
    16   10   11 1   
    17   10   30 1   
    18   10   44 1   
    19   11   12 1   
    20   11   31 1   
    21   11   32 1   
    22   12   13 1   
    23   12   33 1   
    24   12   34 1   
    25   13   14 1   
    26   13   35 1   
    27   13   36 1   
    28   14   15 1   
    29   14   37 1   
    30   14   45 1   
    31   15   16 2   
    32   15   17 1   
    33   17   18 1   
    34   17   38 1   
    35   18   19 ar  
    36   18   23 ar  
    37   19   20 ar  
    38   19   39 1   
    39   20   21 ar  
    40   20   40 1   
    41   21   22 ar  
    42   21   41 1   
    43   22   23 ar  
    44   22   42 1   
    45   23   24 1   
    46   24   43 1   
@<TRIPOS>SUBSTRUCTURE
     1 392         1 TEMP              0 ****  ****    0 ROOT
