@<TRIPOS>MOLECULE
392
   46    47     1     0     0
SMALL
bcc


@<TRIPOS>ATOM
      1 CAJ        -0.8390    0.3790   -0.2800 ca        1 392     -0.106000
      2 CAT         0.3700    0.4980   -0.9730 ca        1 392      0.027400
      3 CLC         0.4250    1.3710   -2.4130 cl        1 392      0.004600
      4 CAI         1.5360   -0.0980   -0.4720 ca        1 392     -0.051000
      5 CAU         1.4840   -0.8200    0.7280 ca        1 392      0.027400
      6 CLD         2.8820   -1.5360    1.3400 cl        1 392      0.004600
      7 CAK         0.2790   -0.9440    1.4280 ca        1 392     -0.106000
      8 CAW        -0.8790   -0.3420    0.9200 ca        1 392     -0.201300
      9 CAO        -2.1420   -0.4080    1.6950 c3        1 392      0.195100
     10 NAP        -2.9420   -1.6350    1.2700 n4        1 392     -0.777000
     11 CAM        -4.2180   -1.7470    2.0200 c3        1 392      0.102800
     12 CAL        -5.0640   -2.9670    1.6310 c3        1 392     -0.134400
     13 CAN        -6.3330   -2.9460    2.4820 c3        1 392      0.114800
     14 NAQ        -7.2570   -4.1050    2.1920 n4        1 392     -0.641800
     15 CAS        -8.4950   -4.0260    3.0390 c         1 392      0.484100
     16 OAA        -8.7520   -3.0180    3.6740 o         1 392     -0.289100
     17 NAR        -9.4080   -5.2160    3.0630 n4        1 392     -0.465200
     18 CAX        -9.7680   -5.7140    1.7410 ca        1 392     -0.181400
     19 CAH       -11.0260   -5.3930    1.1790 ca        1 392     -0.048000
     20 CAF       -11.4220   -6.0130    0.0000 ca        1 392     -0.103000
     21 CAE       -10.5950   -6.9530   -0.6310 ca        1 392      0.018000
     22 CAG        -9.3400   -7.2620   -0.0990 ca        1 392     -0.158000
     23 CAV        -8.9200   -6.6410    1.0780 ca        1 392      0.136100
     24 OAB        -7.6800   -6.8470    1.6460 oh        1 392     -0.600100
     25 H1         -1.7410    0.8790   -0.6660 ha        1 392      0.152000
     26 H2          2.4950    0.0100   -1.0160 ha        1 392      0.204000
     27 H3          0.2570   -1.4850    2.3870 ha        1 392      0.152000
     28 H4         -1.9420   -0.5060    2.8010 hx        1 392      0.115700
     29 H5         -2.7890    0.4960    1.5060 hx        1 392      0.115700
     30 H6         -2.3590   -2.4670    1.4240 hn        1 392      0.457800
     31 H8         -4.8080   -0.8000    1.8360 hx        1 392      0.123200
     32 H9         -3.9650   -1.7940    3.1210 hx        1 392      0.123200
     33 H10        -4.4820   -3.9120    1.8130 hc        1 392      0.095700
     34 H11        -5.3220   -2.9230    0.5370 hc        1 392      0.095700
     35 H12        -6.0690   -2.9940    3.5810 hx        1 392      0.139700
     36 H13        -6.9140   -1.9930    2.2940 hx        1 392      0.139700
     37 H14        -7.5420   -4.0930    1.1970 hn        1 392      0.501800
     38 H15       -10.2730   -4.9260    3.5720 hn        1 392      0.521800
     39 H16       -11.7110   -4.6770    1.6700 ha        1 392      0.186000
     40 H17       -12.4140   -5.7740   -0.4340 ha        1 392      0.215000
     41 H18       -10.9390   -7.4580   -1.5570 ha        1 392      0.215000
     42 H19        -8.6920   -8.0080   -0.5970 ha        1 392      0.202000
     43 H20        -7.3300   -7.7090    1.3460 ho        1 392      0.508000
     44 HAP2       -3.1230   -1.5650    0.2600 hn        1 392      0.457800
     45 HAQ2       -6.7670   -5.0050    2.3600 hn        1 392      0.501800
     46 HAR2       -8.9470   -5.9830    3.5920 hn        1 392      0.521800
@<TRIPOS>BOND
     1    1    2 ar  
     2    1    8 ar  
     3    1   25 1   
     4    2    3 1   
     5    2    4 ar  
     6    4    5 ar  
     7    4   26 1   
     8    5    6 1   
     9    5    7 ar  
    10    7    8 ar  
    11    7   27 1   
    12    8    9 1   
    13    9   10 1   
    14    9   28 1   
    15    9   29 1   
    16   10   11 1   
    17   10   30 1   
    18   10   44 1   
    19   11   12 1   
    20   11   31 1   
    21   11   32 1   
    22   12   13 1   
    23   12   33 1   
    24   12   34 1   
    25   13   14 1   
    26   13   35 1   
    27   13   36 1   
    28   14   15 1   
    29   14   37 1   
    30   14   45 1   
    31   15   16 2   
    32   15   17 1   
    33   17   18 1   
    34   17   38 1   
    35   17   46 1   
    36   18   19 ar  
    37   18   23 ar  
    38   19   20 ar  
    39   19   39 1   
    40   20   21 ar  
    41   20   40 1   
    42   21   22 ar  
    43   21   41 1   
    44   22   23 ar  
    45   22   42 1   
    46   23   24 1   
    47   24   43 1   
@<TRIPOS>SUBSTRUCTURE
     1 392         1 TEMP              0 ****  ****    0 ROOT
