@<TRIPOS>MOLECULE
392
   43    44     1     0     0
SMALL
bcc


@<TRIPOS>ATOM
      1 CAJ         4.7930   -1.0790   -0.4060 ca        1 392     -0.113500
      2 CAT         6.0800   -1.3570    0.0640 ca        1 392      0.021400
      3 CLC         6.5080   -2.9550    0.4500 cl        1 392     -0.084900
      4 CAI         7.0250   -0.3380    0.2190 ca        1 392     -0.119000
      5 CAU         6.6600    0.9720   -0.1020 ca        1 392      0.021400
      6 CLD         7.7950    2.2240    0.0800 cl        1 392     -0.084900
      7 CAK         5.3760    1.2670   -0.5690 ca        1 392     -0.113500
      8 CAW         4.4430    0.2370   -0.7210 ca        1 392     -0.076300
      9 CAO         3.0770    0.5480   -1.2610 c3        1 392      0.208100
     10 NAP         2.0040   -0.0200   -0.4660 n3        1 392     -0.825200
     11 CAM         0.6950    0.4520   -0.8730 c3        1 392      0.165800
     12 CAL        -0.4220   -0.0460    0.0430 c3        1 392     -0.094400
     13 CAN        -1.7560    0.4790   -0.4860 c3        1 392      0.086000
     14 NAQ        -2.8810    0.0200    0.2940 n         1 392     -0.551900
     15 CAS        -4.1700    0.3320   -0.1830 c         1 392      0.748100
     16 OAA        -4.3210    0.7520   -1.3540 o         1 392     -0.624100
     17 NAR        -5.2590    0.1670    0.7080 n         1 392     -0.438100
     18 CAX        -6.5860    0.0730    0.2370 ca        1 392      0.031600
     19 CAH        -7.0790    0.8930   -0.7970 ca        1 392     -0.103000
     20 CAF        -8.4150    0.8270   -1.1830 ca        1 392     -0.143000
     21 CAE        -9.2990   -0.0450   -0.5530 ca        1 392     -0.112000
     22 CAG        -8.8450   -0.8690    0.4730 ca        1 392     -0.191000
     23 CAV        -7.5030   -0.8210    0.8630 ca        1 392      0.078100
     24 OAB        -7.0130   -1.6250    1.8740 oh        1 392     -0.519100
     25 H1          4.0560   -1.8890   -0.5280 ha        1 392      0.158500
     26 H2          8.0380   -0.5640    0.5870 ha        1 392      0.162000
     27 H3          5.1030    2.3050   -0.8160 ha        1 392      0.158500
     28 H4          2.9740    1.6710   -1.3720 h1        1 392      0.043700
     29 H5          2.9960    0.1050   -2.2970 h1        1 392      0.043700
     30 H6          2.1570    0.1470    0.5110 hn        1 392      0.362800
     31 H8          0.6440    1.5820   -0.9180 h1        1 392      0.034700
     32 H9          0.5100    0.0700   -1.9170 h1        1 392      0.034700
     33 H10        -0.4270   -1.1670    0.0660 hc        1 392      0.054200
     34 H11        -0.2520    0.3150    1.0910 hc        1 392      0.054200
     35 H12        -1.7250    1.6080   -0.5100 h1        1 392      0.055200
     36 H13        -1.9090    0.1270   -1.5480 h1        1 392      0.055200
     37 H14        -2.7370   -0.0190    1.2770 hn        1 392      0.295500
     38 H15        -5.0910   -0.3880    1.5240 hn        1 392      0.315500
     39 H16        -6.3950    1.5840   -1.3180 ha        1 392      0.172000
     40 H17        -8.7710    1.4770   -1.9970 ha        1 392      0.138000
     41 H18       -10.3530   -0.0880   -0.8630 ha        1 392      0.135000
     42 H19        -9.5340   -1.5640    0.9750 ha        1 392      0.133000
     43 H20        -7.7470   -2.1610    2.2080 ho        1 392      0.427000
@<TRIPOS>BOND
     1    1    2 ar  
     2    1    8 ar  
     3    1   25 1   
     4    2    3 1   
     5    2    4 ar  
     6    4    5 ar  
     7    4   26 1   
     8    5    6 1   
     9    5    7 ar  
    10    7    8 ar  
    11    7   27 1   
    12    8    9 1   
    13    9   10 1   
    14    9   28 1   
    15    9   29 1   
    16   10   11 1   
    17   10   30 1   
    18   11   12 1   
    19   11   31 1   
    20   11   32 1   
    21   12   13 1   
    22   12   33 1   
    23   12   34 1   
    24   13   14 1   
    25   13   35 1   
    26   13   36 1   
    27   14   15 1   
    28   14   37 1   
    29   15   16 2   
    30   15   17 1   
    31   17   18 1   
    32   17   38 1   
    33   18   19 ar  
    34   18   23 ar  
    35   19   20 ar  
    36   19   39 1   
    37   20   21 ar  
    38   20   40 1   
    39   21   22 ar  
    40   21   41 1   
    41   22   23 ar  
    42   22   42 1   
    43   23   24 1   
    44   24   43 1   
@<TRIPOS>SUBSTRUCTURE
     1 392         1 TEMP              0 ****  ****    0 ROOT
