@<TRIPOS>MOLECULE
392
   43    36     1     0     0
SMALL
bcc


@<TRIPOS>ATOM
      1 CAJ         5.5040    3.2660    0.9450 c1        1 392     -0.122000
      2 CAT         6.8850    3.3080    0.7760 c1        1 392     -0.056000
      3 CLC         7.9110    3.6890    2.1200 cl        1 392     -0.008000
      4 CAI         7.4480    2.9630   -0.4510 c1        1 392     -0.120000
      5 CAU         6.6280    2.5750   -1.5120 c1        1 392     -0.058000
      6 CLD         7.3270    2.1590   -3.0430 cl        1 392     -0.007000
      7 CAK         5.2520    2.5330   -1.3440 c1        1 392     -0.105000
      8 CAW         4.6860    2.8790   -0.1110 c1        1 392     -0.068000
      9 CAO         3.1990    2.9100    0.0470 c3        1 392     -0.036000
     10 NAP         2.7200    1.5920    0.3400 n3        1 392     -0.304000
     11 CAM         1.2730    1.6080    0.4040 c3        1 392     -0.069000
     12 CAL         0.7370    0.1530    0.4180 c3        1 392     -0.198000
     13 CAN        -0.8110    0.1710    0.5340 c3        1 392     -0.042000
     14 NAQ        -1.3310   -1.1300    0.1870 n3        1 392     -0.343000
     15 CAS        -2.7660   -1.4020    0.2980 c1        1 392      0.367000
     16 OAA        -3.5280   -0.5220    0.6650 o         1 392     -0.384000
     17 NAR        -3.2830   -2.6850   -0.0890 n2        1 392     -0.293000
     18 CAX        -4.6740   -2.9290   -0.0460 c1        1 392      0.039000
     19 CAH        -5.3390   -2.8950    1.1560 c1        1 392     -0.137000
     20 CAF        -6.6940   -3.2150    1.2100 c1        1 392     -0.137000
     21 CAE        -7.3650   -3.5650    0.0620 c1        1 392     -0.137000
     22 CAG        -6.6910   -3.5990   -1.1570 c1        1 392     -0.137000
     23 CAV        -5.3570   -3.2850   -1.2130 c1        1 392      0.033000
     24 OAB        -4.6590   -3.3880   -2.4360 oh        1 392     -0.273000
     25 H1          5.1050    3.5090    1.8160 ha        1 392      0.151000
     26 H2          8.3950    2.9910   -0.5650 ha        1 392      0.162000
     27 H3          4.6670    2.2550   -2.1000 ha        1 392      0.166000
     28 H4          2.7840    3.2330   -0.7930 h1        1 392      0.082000
     29 H5          2.9570    3.5250    0.7940 h1        1 392      0.082000
     30 H6          3.0590    1.3170    1.1460 hn        1 392      0.160000
     31 H8          0.9130    2.0830   -0.3880 h1        1 392      0.072500
     32 H9          0.9810    2.0800    1.2410 h1        1 392      0.072500
     33 H10         1.1120   -0.3230    1.1750 hc        1 392      0.093500
     34 H11         1.0070   -0.3150   -0.4440 hc        1 392      0.093500
     35 H12        -1.0700    0.3920    1.4580 h1        1 392      0.110000
     36 H13        -1.1710    0.8340   -0.0690 h1        1 392      0.110000
     37 H14        -0.7780   -1.7640   -0.1280 hn        1 392      0.204000
     38 H15        -2.7090   -3.3600   -0.3090 hn        1 392      0.230000
     39 H16        -4.8450   -2.6380    2.0000 ha        1 392      0.144750
     40 H17        -7.1750   -3.1910    2.0760 ha        1 392      0.144750
     41 H18        -8.3250   -3.7910    0.1010 ha        1 392      0.144750
     42 H19        -7.1720   -3.8500   -1.9790 ha        1 392      0.144750
     43 H20        -4.8070   -4.1770   -2.7920 ho        1 392      0.226000
@<TRIPOS>BOND
     1    1    8 1   
     2    1   25 1   
     3    2    4 1   
     4    4   26 1   
     5    5    6 1   
     6    5    7 1   
     7    7   27 1   
     8    8    9 1   
     9    9   10 1   
    10    9   28 1   
    11    9   29 1   
    12   10   11 1   
    13   10   30 1   
    14   11   12 1   
    15   11   31 1   
    16   11   32 1   
    17   12   13 1   
    18   12   33 1   
    19   12   34 1   
    20   13   14 1   
    21   13   35 1   
    22   13   36 1   
    23   14   15 1   
    24   14   37 1   
    25   15   16 1   
    26   17   18 1   
    27   17   38 1   
    28   18   23 1   
    29   19   20 1   
    30   19   39 1   
    31   20   40 1   
    32   21   22 1   
    33   21   41 1   
    34   22   42 1   
    35   23   24 1   
    36   24   43 1   
@<TRIPOS>SUBSTRUCTURE
     1 392         1 TEMP              0 ****  ****    0 ROOT
