@<TRIPOS>MOLECULE
393
   38    39     1     0     0
SMALL
bcc


@<TRIPOS>ATOM
      1 C1         -0.0590   -0.8160    0.3540 ca        1 393     -0.181200
      2 N2         -0.8130   -1.3170   -0.8250 no        1 393      0.313200
      3 O3         -2.0090   -1.4090   -0.7560 o         1 393     -0.207500
      4 O4         -0.2060   -1.6150   -1.8190 o         1 393     -0.207500
      5 C5          1.3400   -0.7190    0.2870 ca        1 393     -0.063000
      6 C6          2.0420   -0.2490    1.3970 ca        1 393     -0.134300
      7 C7          3.5450   -0.1690    1.3650 c3        1 393      0.130300
      8 N8          4.0850    1.1570    1.2410 ns        1 393     -0.543900
      9 C9          4.2860    1.9620    2.3480 c         1 393      0.674700
     10 C10         4.8080    3.3420    2.1280 ca        1 393     -0.146600
     11 C11         5.8050    3.7950    3.0040 ca        1 393     -0.052000
     12 C12         6.3350    5.0760    2.8880 ca        1 393     -0.142000
     13 C13         5.8660    5.9310    1.8850 ca        1 393      0.060400
     14 Cl1         6.5070    7.4930    1.7360 cl        1 393     -0.060400
     15 C15         4.8690    5.5100    1.0020 ca        1 393     -0.183000
     16 C16         4.3490    4.2150    1.1290 ca        1 393      0.121100
     17 O17         3.4060    3.7410    0.2210 os        1 393     -0.358900
     18 C18         2.3190    4.6270   -0.0500 c3        1 393      0.032400
     19 C19         2.5710    5.4330   -1.3000 c         1 393      0.596100
     20 O20         1.8740    6.3670   -1.6920 o         1 393     -0.475000
     21 O21         3.6350    5.1440   -2.0980 oh        1 393     -0.569100
     22 O22         4.1180    1.5250    3.5060 o         1 393     -0.608100
     23 C23         1.3530    0.1220    2.5580 ca        1 393     -0.072000
     24 C24        -0.0360    0.0220    2.6130 ca        1 393     -0.143000
     25 C25        -0.7560   -0.4480    1.5160 ca        1 393     -0.063000
     26 H5          1.8730   -1.0180   -0.6330 ha        1 393      0.169000
     27 H71         3.9320   -0.7730    0.4940 h1        1 393      0.076200
     28 H72         3.9420   -0.6250    2.3210 h1        1 393      0.076200
     29 HN8         4.0060    1.5950    0.3510 hn        1 393      0.321500
     30 H11         6.1550    3.1190    3.8030 ha        1 393      0.169000
     31 H12         7.1170    5.4130    3.5860 ha        1 393      0.162000
     32 H15         4.4970    6.1780    0.2080 ha        1 393      0.166000
     33 H181        2.1100    5.3130    0.8110 h1        1 393      0.105200
     34 H182        1.4410    3.9430   -0.2230 h1        1 393      0.105200
     35 H23         1.9250    0.4950    3.4280 ha        1 393      0.172000
     36 H24        -0.5730    0.3130    3.5300 ha        1 393      0.152000
     37 H25        -1.8550   -0.5320    1.5580 ha        1 393      0.172000
     38 H82         4.1250    4.3880   -1.7390 ho        1 393      0.440000
@<TRIPOS>BOND
     1    1    2 1   
     2    1    5 ar  
     3    1   25 ar  
     4    2    3 1   
     5    2    4 1   
     6    5    6 ar  
     7    5   26 1   
     8    6    7 1   
     9    6   23 ar  
    10    7    8 1   
    11    7   27 1   
    12    7   28 1   
    13    8    9 1   
    14    8   29 1   
    15    9   10 1   
    16    9   22 2   
    17   10   11 ar  
    18   10   16 ar  
    19   11   12 ar  
    20   11   30 1   
    21   12   13 ar  
    22   12   31 1   
    23   13   14 1   
    24   13   15 ar  
    25   15   16 ar  
    26   15   32 1   
    27   16   17 1   
    28   17   18 1   
    29   18   19 1   
    30   18   33 1   
    31   18   34 1   
    32   19   20 2   
    33   19   21 1   
    34   21   38 1   
    35   23   24 ar  
    36   23   35 1   
    37   24   25 ar  
    38   24   36 1   
    39   25   37 1   
@<TRIPOS>SUBSTRUCTURE
     1 393         1 TEMP              0 ****  ****    0 ROOT
