@<TRIPOS>MOLECULE
393
   37    33     1     0     0
SMALL
bcc


@<TRIPOS>ATOM
      1 C1          0.3290    0.9450   -4.2000 c1        1 393     -0.148000
      2 N2          1.4520    0.4360   -4.8900 n2        1 393      0.460400
      3 O3          2.6730    0.3650   -4.2610 o         1 393     -0.326200
      4 O4          1.3320    0.0340   -6.0450 o         1 393     -0.326200
      5 C5          0.4710    1.4350   -2.8990 c1        1 393     -0.069000
      6 C6         -0.6410    1.9370   -2.2170 c1        1 393     -0.105000
      7 C7         -0.4970    2.4100   -0.7570 c3        1 393      0.021000
      8 N8         -0.9150    1.3730    0.1220 n         1 393     -0.365000
      9 C9          0.0130    0.8290    1.0870 c2        1 393      0.361000
     10 C10         0.0140   -0.6550    1.3810 c2        1 393     -0.145000
     11 C11        -0.8260   -1.5090    0.6640 c2        1 393     -0.055000
     12 C12        -0.8500   -2.8600    0.9540 c1        1 393     -0.186000
     13 C13        -0.0370   -3.3690    1.9610 c1        1 393     -0.013000
     14 CL1         0.0380   -5.0930    2.2310 cl        1 393     -0.044000
     15 C15         0.8020   -2.5150    2.6780 c1        1 393     -0.197000
     16 C16         0.8250   -1.1620    2.3870 c1        1 393      0.164000
     17 O17         1.5930   -0.2480    3.2270 os        1 393     -0.217000
     18 C18         1.8290   -0.7330    4.5550 c3        1 393     -0.099000
     19 C19         0.6480   -0.4040    5.4280 c2        1 393      0.323000
     20 O20         0.4480   -1.0550    6.4670 o         1 393     -0.567000
     21 O21        -0.0710    0.5960    5.1650 o         1 393     -0.567000
     22 O22         0.7340    1.5610    1.7020 o         1 393     -0.425000
     23 C23        -1.8960    1.9480   -2.8360 c1        1 393     -0.060000
     24 C24        -2.0390    1.4590   -4.1330 c1        1 393     -0.146000
     25 C25        -0.9240    0.9560   -4.8180 c2        1 393     -0.081000
     26 H5          1.3540    1.4950   -2.4970 ha        1 393      0.163000
     27 H71         0.4470    2.6350   -0.5760 h1        1 393      0.100500
     28 H72        -1.0420    3.1850   -0.6180 h1        1 393      0.100500
     29 HN8        -1.8020    1.1140    0.1390 hn        1 393      0.297000
     30 H11        -1.4020   -1.1490   -0.0500 ha        1 393      0.151000
     31 H12        -1.4460   -3.4660    0.4440 ha        1 393      0.137000
     32 H15         1.3790   -2.8770    3.3930 ha        1 393      0.160000
     33 H181        2.6470   -0.3000    4.9260 h1        1 393      0.087000
     34 H182        1.9540   -1.6950    4.5310 h1        1 393      0.087000
     35 H23        -2.6600    2.2930   -2.3660 ha        1 393      0.223000
     36 H24        -2.9120    1.4670   -4.5630 ha        1 393      0.150000
     37 H25        -1.0220    0.6170   -5.7160 ha        1 393      0.156000
@<TRIPOS>BOND
     1    1    5 1   
     2    1   25 1   
     3    2    3 2   
     4    2    4 2   
     5    5   26 1   
     6    6    7 1   
     7    6   23 1   
     8    7    8 1   
     9    7   27 1   
    10    7   28 1   
    11    8    9 1   
    12    8   29 1   
    13    9   10 1   
    14    9   22 1   
    15   10   11 1   
    16   10   16 1   
    17   11   12 1   
    18   11   30 1   
    19   12   31 1   
    20   13   14 1   
    21   13   15 1   
    22   15   32 1   
    23   16   17 1   
    24   17   18 1   
    25   18   19 1   
    26   18   33 1   
    27   18   34 1   
    28   19   20 1   
    29   19   21 1   
    30   23   35 1   
    31   24   25 1   
    32   24   36 1   
    33   25   37 1   
@<TRIPOS>SUBSTRUCTURE
     1 393         1 TEMP              0 ****  ****    0 ROOT
