@<TRIPOS>MOLECULE
393
   37    38     1     0     0
SMALL
bcc


@<TRIPOS>ATOM
      1 C1         -0.6930   -0.6250    0.9320 ca        1 393     -0.187200
      2 N2         -1.9420   -0.8730    0.1720 no        1 393      0.312200
      3 O3         -2.9140   -1.2770    0.7600 o         1 393     -0.224000
      4 O4         -1.9640   -0.6780   -1.0140 o         1 393     -0.224000
      5 C5          0.4220   -0.0700    0.2810 ca        1 393     -0.054000
      6 C6          1.5980    0.1330    1.0070 ca        1 393     -0.090300
      7 C7          2.8250    0.6770    0.3190 c3        1 393      0.130300
      8 N8          3.2330    1.9750    0.7790 n         1 393     -0.529900
      9 C9          4.1350    2.1360    1.8020 c         1 393      0.675700
     10 C10         4.6610    3.5110    2.0590 ca        1 393     -0.169600
     11 C11         4.8330    3.9090    3.3880 ca        1 393     -0.053000
     12 C12         5.2850    5.1880    3.7030 ca        1 393     -0.188000
     13 C13         5.5810    6.0800    2.6690 ca        1 393      0.065400
     14 CL1         6.1270    7.6510    3.0500 cl        1 393     -0.120400
     15 C15         5.4480    5.7090    1.3340 ca        1 393     -0.209000
     16 C16         4.9950    4.4130    1.0250 ca        1 393      0.187100
     17 O17         4.9410    3.9460   -0.2600 os        1 393     -0.316900
     18 C18         4.5290    4.8810   -1.2710 c3        1 393     -0.011600
     19 C19         3.6190    4.1160   -2.2670 c         1 393      0.924600
     20 O20         3.6640    4.5060   -3.4610 o         1 393     -0.821800
     21 O21         2.8760    3.1950   -1.8240 o         1 393     -0.821800
     22 O22         4.4550    1.1880    2.5640 o         1 393     -0.674100
     23 C23         1.6480   -0.1950    2.3660 ca        1 393     -0.075000
     24 C24         0.5300   -0.7320    3.0040 ca        1 393     -0.155000
     25 C25        -0.6470   -0.9540    2.2980 ca        1 393     -0.082000
     26 H5          0.3690    0.2060   -0.7870 ha        1 393      0.182000
     27 H71         3.6570   -0.0710    0.4840 h1        1 393      0.076200
     28 H72         2.6280    0.7650   -0.7920 h1        1 393      0.076200
     29 HN8         3.1330    2.7160    0.0950 hn        1 393      0.384500
     30 H11         4.6020    3.1890    4.1900 ha        1 393      0.150000
     31 H12         5.4050    5.4880    4.7530 ha        1 393      0.138000
     32 H15         5.6940    6.4060    0.5190 ha        1 393      0.158000
     33 H181        3.9560    5.7320   -0.8310 h1        1 393      0.037700
     34 H182        5.4560    5.2550   -1.7740 h1        1 393      0.037700
     35 H23         2.5870   -0.0180    2.9250 ha        1 393      0.179000
     36 H24         0.5770   -0.9820    4.0740 ha        1 393      0.136000
     37 H25        -1.5320   -1.3790    2.7980 ha        1 393      0.156000
@<TRIPOS>BOND
     1    1    2 1   
     2    1    5 ar  
     3    1   25 ar  
     4    2    3 1   
     5    2    4 1   
     6    5    6 ar  
     7    5   26 1   
     8    6    7 1   
     9    6   23 ar  
    10    7    8 1   
    11    7   27 1   
    12    7   28 1   
    13    8    9 1   
    14    8   29 1   
    15    9   10 1   
    16    9   22 2   
    17   10   11 ar  
    18   10   16 ar  
    19   11   12 ar  
    20   11   30 1   
    21   12   13 ar  
    22   12   31 1   
    23   13   14 1   
    24   13   15 ar  
    25   15   16 ar  
    26   15   32 1   
    27   16   17 1   
    28   17   18 1   
    29   18   19 1   
    30   18   33 1   
    31   18   34 1   
    32   19   20 1   
    33   19   21 1   
    34   23   24 ar  
    35   23   35 1   
    36   24   25 ar  
    37   24   36 1   
    38   25   37 1   
@<TRIPOS>SUBSTRUCTURE
     1 393         1 TEMP              0 ****  ****    0 ROOT
