@<TRIPOS>MOLECULE
393
   38    39     1     0     0
SMALL
bcc


@<TRIPOS>ATOM
      1 C1          0.0580   -0.7470   -0.0280 ca        1 393     -0.175200
      2 N2         -0.6210   -1.2920   -1.2330 no        1 393      0.314200
      3 O3         -1.8150   -1.4280   -1.2180 o         1 393     -0.208000
      4 O4          0.0440   -1.5890   -2.1900 o         1 393     -0.208000
      5 C5          1.4560   -0.6030   -0.0310 ca        1 393     -0.061000
      6 C6          2.0880   -0.1000    1.1060 ca        1 393     -0.139300
      7 C7          3.5890    0.0110    1.1470 c3        1 393      0.135300
      8 N8          4.1050    1.3520    1.1530 n         1 393     -0.558900
      9 C9          4.3230    2.0480    2.3250 c         1 393      0.677700
     10 C10         4.9360    3.4050    2.2290 ca        1 393     -0.162600
     11 C11         5.9600    3.7050    3.1360 ca        1 393     -0.043000
     12 C12         6.5940    4.9440    3.1210 ca        1 393     -0.153000
     13 C13         6.2010    5.9060    2.1860 ca        1 393      0.067400
     14 CL1         6.9730    7.4160    2.1500 cl        1 393     -0.066400
     15 C15         5.1740    5.6420    1.2750 ca        1 393     -0.199000
     16 C16         4.5420    4.3920    1.3060 ca        1 393      0.156100
     17 O17         3.5310    4.0520    0.4220 os        1 393     -0.363900
     18 C18         2.8460    5.1490   -0.1910 c3        1 393      0.031400
     19 C19         1.5300    4.6280   -0.7130 c         1 393      0.628100
     20 O20         0.7880    5.2570   -1.4650 o         1 393     -0.476000
     21 O21         1.0710    3.4010   -0.3550 oh        1 393     -0.564100
     22 O22         4.0900    1.5310    3.4380 o         1 393     -0.608100
     23 C23         1.3340    0.2590    2.2290 ca        1 393     -0.077000
     24 C24        -0.0530    0.1190    2.2180 ca        1 393     -0.141000
     25 C25        -0.7040   -0.3840    1.0930 ca        1 393     -0.058000
     26 H5          2.0400   -0.8920   -0.9220 ha        1 393      0.169000
     27 H71         3.9500   -0.5120    2.0830 h1        1 393      0.075200
     28 H72         4.0270   -0.5170    0.2510 h1        1 393      0.075200
     29 HN8         4.1290    1.8440    0.2900 hn        1 393      0.323500
     30 H11         6.2500    2.9420    3.8790 ha        1 393      0.168000
     31 H12         7.3970    5.1620    3.8420 ha        1 393      0.162000
     32 H15         4.8790    6.4070    0.5420 ha        1 393      0.160000
     33 H181        3.4640    5.5360   -1.0460 h1        1 393      0.090700
     34 H182        2.6490    5.9680    0.5510 h1        1 393      0.090700
     35 H23         1.8520    0.6480    3.1240 ha        1 393      0.170000
     36 H24        -0.6420    0.4050    3.1030 ha        1 393      0.152000
     37 H25        -1.8020   -0.4960    1.0810 ha        1 393      0.173000
     38 H82         1.6950    2.9600    0.2420 ho        1 393      0.443000
@<TRIPOS>BOND
     1    1    2 1   
     2    1    5 ar  
     3    1   25 ar  
     4    2    3 1   
     5    2    4 1   
     6    5    6 ar  
     7    5   26 1   
     8    6    7 1   
     9    6   23 ar  
    10    7    8 1   
    11    7   27 1   
    12    7   28 1   
    13    8    9 1   
    14    8   29 1   
    15    9   10 1   
    16    9   22 2   
    17   10   11 ar  
    18   10   16 ar  
    19   11   12 ar  
    20   11   30 1   
    21   12   13 ar  
    22   12   31 1   
    23   13   14 1   
    24   13   15 ar  
    25   15   16 ar  
    26   15   32 1   
    27   16   17 1   
    28   17   18 1   
    29   18   19 1   
    30   18   33 1   
    31   18   34 1   
    32   19   20 2   
    33   19   21 1   
    34   21   38 1   
    35   23   24 ar  
    36   23   35 1   
    37   24   25 ar  
    38   24   36 1   
    39   25   37 1   
@<TRIPOS>SUBSTRUCTURE
     1 393         1 TEMP              0 ****  ****    0 ROOT
