@<TRIPOS>MOLECULE
393
   37    38     1     0     0
SMALL
bcc


@<TRIPOS>ATOM
      1 C1          6.2350   -1.7620   -4.9420 ca        1 393     -0.183200
      2 N2          7.6410   -2.2200   -4.8050 no        1 393      0.309200
      3 O3          8.5140   -1.5630   -5.3220 o         1 393     -0.215500
      4 O4          7.8880   -3.2310   -4.2100 o         1 393     -0.215500
      5 C5          5.2290   -2.3090   -4.1310 ca        1 393     -0.038000
      6 C6          3.9120   -1.8650   -4.3110 ca        1 393     -0.101300
      7 C7          2.8050   -2.4560   -3.4750 c3        1 393      0.139300
      8 N8          2.8830   -2.0800   -2.0940 n         1 393     -0.543900
      9 C9          1.9090   -1.3450   -1.4730 c         1 393      0.680700
     10 C10         2.0530   -1.0880   -0.0060 ca        1 393     -0.166600
     11 C11         1.5810    0.1370    0.4780 ca        1 393     -0.054000
     12 C12         1.7080    0.4810    1.8210 ca        1 393     -0.188000
     13 C13         2.3110   -0.4230    2.7010 ca        1 393      0.063400
     14 CL1         2.4780   -0.0060    4.3460 cl        1 393     -0.121400
     15 C15         2.7690   -1.6620    2.2590 ca        1 393     -0.208000
     16 C16         2.6300   -2.0020    0.9010 ca        1 393      0.186100
     17 O17         2.9640   -3.2460    0.4340 os        1 393     -0.319900
     18 C18         4.1560   -3.8380    0.9770 c3        1 393     -0.009600
     19 C19         4.9050   -4.5350   -0.1890 c         1 393      0.926600
     20 O20         5.4310   -5.6440    0.0750 o         1 393     -0.824800
     21 O21         4.9740   -3.9380   -1.3020 o         1 393     -0.824800
     22 O22         0.9510   -0.8380   -2.1090 o         1 393     -0.671100
     23 C23         3.6180   -0.8880   -5.2620 ca        1 393     -0.086000
     24 C24         4.6320   -0.3470   -6.0560 ca        1 393     -0.160000
     25 C25         5.9440   -0.7760   -5.9040 ca        1 393     -0.085000
     26 H5          5.4570   -3.0690   -3.3470 ha        1 393      0.235000
     27 H71         1.8080   -2.1410   -3.8990 h1        1 393      0.066700
     28 H72         2.8890   -3.5820   -3.5430 h1        1 393      0.066700
     29 HN8         3.5840   -2.5630   -1.5450 hn        1 393      0.386500
     30 H11         1.1030    0.8340   -0.2300 ha        1 393      0.153000
     31 H12         1.3410    1.4510    2.1810 ha        1 393      0.138000
     32 H15         3.2320   -2.3790    2.9530 ha        1 393      0.157000
     33 H181        4.8260   -3.0680    1.4310 h1        1 393      0.038700
     34 H182        3.8330   -4.5780    1.7510 h1        1 393      0.038700
     35 H23         2.5820   -0.5340   -5.3820 ha        1 393      0.142000
     36 H24         4.3940    0.4250   -6.8020 ha        1 393      0.131000
     37 H25         6.7500   -0.3490   -6.5220 ha        1 393      0.155000
@<TRIPOS>BOND
     1    1    2 1   
     2    1    5 ar  
     3    1   25 ar  
     4    2    3 1   
     5    2    4 1   
     6    5    6 ar  
     7    5   26 1   
     8    6    7 1   
     9    6   23 ar  
    10    7    8 1   
    11    7   27 1   
    12    7   28 1   
    13    8    9 1   
    14    8   29 1   
    15    9   10 1   
    16    9   22 2   
    17   10   11 ar  
    18   10   16 ar  
    19   11   12 ar  
    20   11   30 1   
    21   12   13 ar  
    22   12   31 1   
    23   13   14 1   
    24   13   15 ar  
    25   15   16 ar  
    26   15   32 1   
    27   16   17 1   
    28   17   18 1   
    29   18   19 1   
    30   18   33 1   
    31   18   34 1   
    32   19   20 1   
    33   19   21 1   
    34   23   24 ar  
    35   23   35 1   
    36   24   25 ar  
    37   24   36 1   
    38   25   37 1   
@<TRIPOS>SUBSTRUCTURE
     1 393         1 TEMP              0 ****  ****    0 ROOT
