@<TRIPOS>MOLECULE
394
   54    56     1     0     0
SMALL
bcc


@<TRIPOS>ATOM
      1 C1         -0.3990    0.2570    0.0180 ca        1 394      0.041900
      2 C2          0.9810    0.2050   -0.2180 ca        1 394     -0.116000
      3 C3          1.8690   -0.0100    0.8350 ca        1 394     -0.116600
      4 C4          1.3680   -0.1750    2.1280 ca        1 394     -0.102000
      5 C5          0.0010   -0.1210    2.3860 ca        1 394     -0.144000
      6 C6         -0.9140    0.1000    1.3410 ca        1 394     -0.019400
      7 C7          3.3700   -0.0630    0.5700 c         1 394      0.910200
      8 C8         -5.1950   -0.3180    0.0830 ca        1 394     -0.126000
      9 C9         -5.0780   -0.9670    1.3130 ca        1 394     -0.116300
     10 C10        -5.4270   -2.3170    1.4070 ca        1 394     -0.105000
     11 C11        -5.8730   -2.9940    0.2780 ca        1 394     -0.129000
     12 C12        -5.9790   -2.3540   -0.9670 ca        1 394     -0.055300
     13 C13        -6.4530   -3.1640   -2.1440 c3        1 394     -0.005700
     14 C14        -6.7870   -2.2730   -3.3410 c3        1 394     -0.068400
     15 C15        -5.7600   -1.1900   -3.5550 c3        1 394     -0.070400
     16 C16        -5.6660   -0.2360   -2.3640 c3        1 394     -0.006700
     17 C17        -5.6190   -1.0000   -1.0670 ca        1 394     -0.052300
     18 C18        -4.3960    0.5980   -2.5380 c3        1 394     -0.087600
     19 C19        -6.8680    0.7040   -2.3510 c3        1 394     -0.087600
     20 C20        -7.7200   -3.9380   -1.7800 c3        1 394     -0.085100
     21 C21        -5.3650   -4.1620   -2.5330 c3        1 394     -0.085100
     22 C22        -4.5620   -0.2100    2.5010 c3        1 394      0.117400
     23 C23        -3.0220   -0.3470    2.5840 c         1 394      0.630100
     24 N6         -2.3070    0.2110    1.5530 ns        1 394     -0.433100
     25 F1         -1.2510    0.4690   -1.0250 f         1 394     -0.176900
     26 O22        -5.1530   -0.6430    3.7090 oh        1 394     -0.589800
     27 O23        -2.5370   -0.9080    3.5870 o         1 394     -0.609100
     28 O71         4.1320   -0.2550    1.5570 o         1 394     -0.823800
     29 O72         3.7600    0.0890   -0.6210 o         1 394     -0.823800
     30 H2          1.3810    0.3320   -1.2380 ha        1 394      0.170000
     31 H4          2.0870   -0.3490    2.9460 ha        1 394      0.162000
     32 H5         -0.3670   -0.2630    3.4150 ha        1 394      0.150000
     33 H8         -4.9470    0.7530    0.0110 ha        1 394      0.132000
     34 H10        -5.3490   -2.8360    2.3730 ha        1 394      0.138000
     35 H11        -6.1360   -4.0590    0.3650 ha        1 394      0.130000
     36 H141       -7.7960   -1.8080   -3.1830 hc        1 394      0.039200
     37 H142       -6.8540   -2.9110   -4.2610 hc        1 394      0.039200
     38 H151       -6.0220   -0.6010   -4.4730 hc        1 394      0.045700
     39 H152       -4.7530   -1.6540   -3.7300 hc        1 394      0.045700
     40 H181       -4.3030    0.9280   -3.6000 hc        1 394      0.038533
     41 H182       -4.4280    1.5100   -1.8950 hc        1 394      0.038533
     42 H183       -3.4900    0.0050   -2.2650 hc        1 394      0.038533
     43 H191       -6.8890    1.3080   -3.2900 hc        1 394      0.038533
     44 H192       -7.8200    0.1280   -2.2720 hc        1 394      0.038533
     45 H193       -6.8020    1.3990   -1.4790 hc        1 394      0.038533
     46 H201       -8.4690   -3.2580   -1.3100 hc        1 394      0.036200
     47 H202       -8.1670   -4.3840   -2.7010 hc        1 394      0.036200
     48 H203       -7.4910   -4.7650   -1.0670 hc        1 394      0.036200
     49 H211       -4.4410   -3.6270   -2.8580 hc        1 394      0.036200
     50 H212       -5.7210   -4.8080   -3.3700 hc        1 394      0.036200
     51 H213       -5.1090   -4.8120   -1.6620 hc        1 394      0.036200
     52 H22        -4.8450    0.8800    2.4240 h1        1 394      0.087700
     53 HN6        -2.8280    0.4930    0.7490 hn        1 394      0.317500
     54 HO22       -4.6050   -1.3540    4.0770 ho        1 394      0.427000
@<TRIPOS>BOND
     1    1    2 ar  
     2    1    6 ar  
     3    1   25 1   
     4    2    3 ar  
     5    2   30 1   
     6    3    4 ar  
     7    3    7 1   
     8    4    5 ar  
     9    4   31 1   
    10    5    6 ar  
    11    5   32 1   
    12    6   24 1   
    13    7   28 1   
    14    7   29 1   
    15    8    9 ar  
    16    8   17 ar  
    17    8   33 1   
    18    9   10 ar  
    19    9   22 1   
    20   10   11 ar  
    21   10   34 1   
    22   11   12 ar  
    23   11   35 1   
    24   12   13 1   
    25   12   17 ar  
    26   13   14 1   
    27   13   20 1   
    28   13   21 1   
    29   14   15 1   
    30   14   36 1   
    31   14   37 1   
    32   15   16 1   
    33   15   38 1   
    34   15   39 1   
    35   16   17 1   
    36   16   18 1   
    37   16   19 1   
    38   18   40 1   
    39   18   41 1   
    40   18   42 1   
    41   19   43 1   
    42   19   44 1   
    43   19   45 1   
    44   20   46 1   
    45   20   47 1   
    46   20   48 1   
    47   21   49 1   
    48   21   50 1   
    49   21   51 1   
    50   22   23 1   
    51   22   26 1   
    52   22   52 1   
    53   23   24 1   
    54   23   27 2   
    55   24   53 1   
    56   26   54 1   
@<TRIPOS>SUBSTRUCTURE
     1 394         1 TEMP              0 ****  ****    0 ROOT
