@<TRIPOS>MOLECULE
394
   54    50     1     0     0
SMALL
bcc


@<TRIPOS>ATOM
      1 C1         -0.6790    2.3910    4.7710 c1        1 394      0.004000
      2 C2         -1.6790    2.5330    5.7200 c1        1 394     -0.115000
      3 C3         -1.9170    1.5180    6.6330 c1        1 394     -0.100000
      4 C4         -1.1550    0.3610    6.5970 c1        1 394     -0.128000
      5 C5         -0.1550    0.2190    5.6480 c1        1 394     -0.128000
      6 C6          0.0830    1.2340    4.7350 c1        1 394      0.000000
      7 C7         -3.0440    1.6500    7.6340 c2        1 394      0.359000
      8 C8          1.0330    0.5420   -0.9490 c1        1 394     -0.114000
      9 C9          1.3140   -0.2260    0.2000 c1        1 394     -0.126000
     10 C10         1.1100   -1.6450    0.1830 c1        1 394     -0.108000
     11 C11         0.6280   -2.2760   -0.9820 c1        1 394     -0.132000
     12 C12         0.3510   -1.5280   -2.1080 c1        1 394     -0.045000
     13 C13        -0.2680   -2.1670   -3.4170 c2        1 394     -0.013000
     14 C14        -0.7110   -1.2640   -4.4160 c3        1 394     -0.149000
     15 C15         0.0660   -0.0580   -4.6030 c3        1 394     -0.147000
     16 C16         0.3190    0.7260   -3.4440 c3        1 394     -0.013000
     17 C17         0.5610   -0.0720   -2.0910 c2        1 394     -0.050000
     18 C18         1.5610    1.5470   -3.7140 c3        1 394     -0.204000
     19 C19        -0.8800    1.6240   -3.2330 c3        1 394     -0.204000
     20 C20        -1.4450   -3.0230   -3.0060 c3        1 394     -0.203000
     21 C21         0.7770   -3.0700   -4.0360 c3        1 394     -0.203000
     22 C22         1.8800    0.4400    1.4340 c3        1 394      0.040000
     23 C23         0.7950    0.5700    2.4790 c2        1 394      0.319000
     24 N6          1.1060    1.0880    3.7630 n         1 394     -0.284000
     25 F1         -0.4160    3.3920    3.9210 f         1 394     -0.141000
     26 O22         2.3630    1.7180    1.0970 oh        1 394     -0.323000
     27 O23        -0.3460    0.2520    2.2120 o         1 394     -0.368000
     28 O71        -2.7860    1.8460    8.8510 o         1 394     -0.560500
     29 O72        -4.2410    1.5690    7.2490 o         1 394     -0.560500
     30 H2         -2.2160    3.3480    5.7460 ha        1 394      0.169000
     31 H4         -1.3230   -0.3540    7.2400 ha        1 394      0.156500
     32 H5          0.3820   -0.5960    5.6230 ha        1 394      0.156500
     33 H8          1.1680    1.5090   -0.9340 ha        1 394      0.143000
     34 H10         1.3090   -2.1750    0.9780 ha        1 394      0.142000
     35 H11         0.5040   -3.2440   -0.9960 ha        1 394      0.130000
     36 H141       -0.7310   -1.7450   -5.2710 hc        1 394      0.083500
     37 H142       -1.6300   -0.9980   -4.1960 hc        1 394      0.083500
     38 H151        0.9350   -0.3250   -4.9710 hc        1 394      0.079500
     39 H152       -0.4200    0.5080   -5.2390 hc        1 394      0.079500
     40 H181        1.5350    1.8850   -4.6330 hc        1 394      0.078167
     41 H182        1.5960    2.3020   -3.0890 hc        1 394      0.078167
     42 H183        2.3560    0.9870   -3.5940 hc        1 394      0.078167
     43 H191       -1.6380    1.0880   -2.9200 hc        1 394      0.078167
     44 H192       -0.6630    2.3060   -2.5630 hc        1 394      0.078167
     45 H193       -1.1140    2.0600   -4.0790 hc        1 394      0.078167
     46 H201       -2.0750   -2.4840   -2.4840 hc        1 394      0.075167
     47 H202       -1.1290   -3.7750   -2.4620 hc        1 394      0.075167
     48 H203       -1.8950   -3.3660   -3.8070 hc        1 394      0.075167
     49 H211        0.3980   -3.5200   -4.8190 hc        1 394      0.075167
     50 H212        1.0610   -3.7400   -3.3780 hc        1 394      0.075167
     51 H213        1.5510   -2.5340   -4.3100 hc        1 394      0.075167
     52 H22         2.6120   -0.1010    1.7900 h1        1 394      0.110000
     53 HN6         1.9650    1.3130    3.9690 hn        1 394      0.240000
     54 HO22        3.2340    1.7610    1.2670 ho        1 394      0.206000
@<TRIPOS>BOND
     1    1    6 1   
     2    1   25 1   
     3    2    3 1   
     4    2   30 1   
     5    3    7 1   
     6    4    5 1   
     7    4   31 1   
     8    5   32 1   
     9    6   24 1   
    10    7   28 1   
    11    7   29 1   
    12    8   17 1   
    13    8   33 1   
    14    9   10 1   
    15    9   22 1   
    16   10   34 1   
    17   11   12 1   
    18   11   35 1   
    19   12   17 1   
    20   13   14 1   
    21   13   20 1   
    22   13   21 1   
    23   14   15 1   
    24   14   36 1   
    25   14   37 1   
    26   15   16 1   
    27   15   38 1   
    28   15   39 1   
    29   16   17 1   
    30   16   18 1   
    31   16   19 1   
    32   18   40 1   
    33   18   41 1   
    34   18   42 1   
    35   19   43 1   
    36   19   44 1   
    37   19   45 1   
    38   20   46 1   
    39   20   47 1   
    40   20   48 1   
    41   21   49 1   
    42   21   50 1   
    43   21   51 1   
    44   22   23 1   
    45   22   26 1   
    46   22   52 1   
    47   23   24 1   
    48   23   27 1   
    49   24   53 1   
    50   26   54 1   
@<TRIPOS>SUBSTRUCTURE
     1 394         1 TEMP              0 ****  ****    0 ROOT
