@<TRIPOS>MOLECULE
394
   54    56     1     0     0
SMALL
bcc


@<TRIPOS>ATOM
      1 C1         -0.9160   -0.5510    2.4780 ca        1 394      0.041900
      2 C2         -1.5940   -0.2030    3.6540 ca        1 394     -0.116000
      3 C3         -0.8830    0.2240    4.7760 ca        1 394     -0.116600
      4 C4          0.5090    0.3020    4.7130 ca        1 394     -0.102000
      5 C5          1.2020   -0.0440    3.5570 ca        1 394     -0.144000
      6 C6          0.5080   -0.4830    2.4140 ca        1 394     -0.019400
      7 C7         -1.6270    0.6000    6.0530 c         1 394      0.910200
      8 C8          0.7620   -1.0400   -2.0250 ca        1 394     -0.126000
      9 C9          1.9170   -0.3560   -1.6440 ca        1 394     -0.116300
     10 C10         2.1940    0.8860   -2.2220 ca        1 394     -0.105000
     11 C11         1.3150    1.4260   -3.1530 ca        1 394     -0.129000
     12 C12         0.1430    0.7510   -3.5300 ca        1 394     -0.055300
     13 C13        -0.7660    1.4130   -4.5320 c3        1 394     -0.005700
     14 C14        -1.8310    0.4450   -5.0480 c3        1 394     -0.068400
     15 C15        -2.4310   -0.3920   -3.9460 c3        1 394     -0.070400
     16 C16        -1.3910   -1.2760   -3.2580 c3        1 394     -0.006700
     17 C17        -0.1430   -0.4930   -2.9450 ca        1 394     -0.052300
     18 C18        -2.0200   -1.8160   -1.9730 c3        1 394     -0.087600
     19 C19        -1.0320   -2.4560   -4.1570 c3        1 394     -0.087600
     20 C20         0.0380    1.8980   -5.7380 c3        1 394     -0.085100
     21 C21        -1.4390    2.6160   -3.8760 c3        1 394     -0.085100
     22 C22         2.8260   -0.9560   -0.6120 c3        1 394      0.117400
     23 C23         2.4010   -0.4830    0.8000 c         1 394      0.630100
     24 N6          1.1640   -0.8920    1.2310 n         1 394     -0.433100
     25 F1         -1.6290   -0.9670    1.3920 f         1 394     -0.176900
     26 O22         4.1820   -0.6370   -0.8420 oh        1 394     -0.589800
     27 O23         3.2160    0.1920    1.4620 o         1 394     -0.609100
     28 O71        -0.9390    0.9740    7.0430 o         1 394     -0.823800
     29 O72        -2.8870    0.5120    6.0450 o         1 394     -0.823800
     30 H2         -2.6930   -0.2600    3.7070 ha        1 394      0.170000
     31 H4          1.0510    0.6470    5.6100 ha        1 394      0.162000
     32 H5          2.3010    0.0340    3.5340 ha        1 394      0.150000
     33 H8          0.5550   -2.0330   -1.5930 ha        1 394      0.132000
     34 H10         3.1070    1.4310   -1.9370 ha        1 394      0.138000
     35 H11         1.5410    2.4090   -3.5930 ha        1 394      0.130000
     36 H141       -2.6420    1.0330   -5.5550 hc        1 394      0.039200
     37 H142       -1.3730   -0.2270   -5.8230 hc        1 394      0.039200
     38 H151       -2.9040    0.2780   -3.1790 hc        1 394      0.045700
     39 H152       -3.2400   -1.0430   -4.3690 hc        1 394      0.045700
     40 H181       -1.4520   -2.6990   -1.5920 hc        1 394      0.038533
     41 H182       -2.0310   -1.0330   -1.1760 hc        1 394      0.038533
     42 H183       -3.0700   -2.1400   -2.1720 hc        1 394      0.038533
     43 H191       -0.2690   -3.1010   -3.6570 hc        1 394      0.038533
     44 H192       -1.9410   -3.0700   -4.3610 hc        1 394      0.038533
     45 H193       -0.6110   -2.1010   -5.1280 hc        1 394      0.038533
     46 H201        0.6780    2.7700   -5.4660 hc        1 394      0.036200
     47 H202        0.6920    1.0800   -6.1240 hc        1 394      0.036200
     48 H203       -0.6580    2.2160   -6.5520 hc        1 394      0.036200
     49 H211       -0.6680    3.3250   -3.4890 hc        1 394      0.036200
     50 H212       -2.0750    3.1510   -4.6210 hc        1 394      0.036200
     51 H213       -2.0800    2.2890   -3.0230 hc        1 394      0.036200
     52 H22         2.7880   -2.0830   -0.6640 h1        1 394      0.087700
     53 HN6         0.5630   -1.2980    0.5440 hn        1 394      0.317500
     54 HO22        4.3860    0.1840   -0.3680 ho        1 394      0.427000
@<TRIPOS>BOND
     1    1    2 ar  
     2    1    6 ar  
     3    1   25 1   
     4    2    3 ar  
     5    2   30 1   
     6    3    4 ar  
     7    3    7 1   
     8    4    5 ar  
     9    4   31 1   
    10    5    6 ar  
    11    5   32 1   
    12    6   24 1   
    13    7   28 1   
    14    7   29 1   
    15    8    9 ar  
    16    8   17 ar  
    17    8   33 1   
    18    9   10 ar  
    19    9   22 1   
    20   10   11 ar  
    21   10   34 1   
    22   11   12 ar  
    23   11   35 1   
    24   12   13 1   
    25   12   17 ar  
    26   13   14 1   
    27   13   20 1   
    28   13   21 1   
    29   14   15 1   
    30   14   36 1   
    31   14   37 1   
    32   15   16 1   
    33   15   38 1   
    34   15   39 1   
    35   16   17 1   
    36   16   18 1   
    37   16   19 1   
    38   18   40 1   
    39   18   41 1   
    40   18   42 1   
    41   19   43 1   
    42   19   44 1   
    43   19   45 1   
    44   20   46 1   
    45   20   47 1   
    46   20   48 1   
    47   21   49 1   
    48   21   50 1   
    49   21   51 1   
    50   22   23 1   
    51   22   26 1   
    52   22   52 1   
    53   23   24 1   
    54   23   27 2   
    55   24   53 1   
    56   26   54 1   
@<TRIPOS>SUBSTRUCTURE
     1 394         1 TEMP              0 ****  ****    0 ROOT
