@<TRIPOS>MOLECULE
394
   55    57     1     0     0
SMALL
bcc


@<TRIPOS>ATOM
      1 C1         -0.2660   -0.0220    2.0400 ca        1 394      0.137900
      2 C2          0.5450    0.0360    0.8990 ca        1 394     -0.124000
      3 C3          0.3520   -0.8690   -0.1440 ca        1 394     -0.056600
      4 C4         -0.6390   -1.8560   -0.0430 ca        1 394     -0.105000
      5 C5         -1.4560   -1.9320    1.0720 ca        1 394     -0.104000
      6 C6         -1.2880   -1.0080    2.1230 ca        1 394     -0.156400
      7 C7          1.2160   -0.7820   -1.4200 c         1 394      0.913200
      8 C8         -5.1810   -0.4620    0.5400 ca        1 394     -0.099000
      9 C9         -4.8810   -1.5010    1.4230 ca        1 394     -0.189300
     10 C10        -4.7580   -2.8050    0.9330 ca        1 394     -0.125000
     11 C11        -4.9500   -3.0490   -0.4200 ca        1 394     -0.121000
     12 C12        -5.2550   -2.0120   -1.3180 ca        1 394     -0.013300
     13 C13        -5.4470   -2.3640   -2.7690 c3        1 394     -0.015700
     14 C14        -6.0730   -1.2020   -3.5410 c3        1 394     -0.071400
     15 C15        -5.4380    0.1210   -3.1970 c3        1 394     -0.075400
     16 C16        -5.6180    0.4890   -1.7230 c3        1 394     -0.010700
     17 C17        -5.3470   -0.6950   -0.8320 ca        1 394     -0.040300
     18 C18        -4.6410    1.6220   -1.4120 c3        1 394     -0.089100
     19 C19        -7.0400    0.9850   -1.4790 c3        1 394     -0.089100
     20 C20        -6.3830   -3.5640   -2.9050 c3        1 394     -0.088600
     21 C21        -4.0930   -2.7240   -3.3770 c3        1 394     -0.088600
     22 C22        -4.7150   -1.1900    2.8760 c3        1 394      0.153400
     23 C23        -3.4580   -0.3420    3.0980 c         1 394      0.548100
     24 N6         -2.1550   -1.0720    3.2970 n4        1 394     -0.506200
     25 F1         -0.0830    0.8420    3.0690 f         1 394     -0.144900
     26 O22        -4.5830   -2.3340    3.7060 oh        1 394     -0.624800
     27 O23        -3.4430    0.8780    3.1450 o         1 394     -0.414100
     28 O71         2.1350    0.0710   -1.4130 o         1 394     -0.780800
     29 O72         0.9070   -1.5720   -2.3470 o         1 394     -0.780800
     30 H2          1.3450    0.7950    0.8080 ha        1 394      0.202000
     31 H4         -0.7500   -2.5620   -0.8870 ha        1 394      0.190000
     32 H5         -2.2440   -2.7010    1.1280 ha        1 394      0.136000
     33 H8         -5.2780    0.5650    0.9320 ha        1 394      0.144000
     34 H10        -4.5050   -3.6380    1.6080 ha        1 394      0.130000
     35 H11        -4.8500   -4.0800   -0.7970 ha        1 394      0.149000
     36 H141       -5.9570   -1.3950   -4.6410 hc        1 394      0.049200
     37 H142       -7.1730   -1.1630   -3.3220 hc        1 394      0.049200
     38 H151       -5.8930    0.9300   -3.8290 hc        1 394      0.057200
     39 H152       -4.3410    0.0870   -3.4360 hc        1 394      0.057200
     40 H181       -3.5930    1.2390   -1.3880 hc        1 394      0.041533
     41 H182       -4.7150    2.4080   -2.2030 hc        1 394      0.041533
     42 H183       -4.8750    2.0960   -0.4290 hc        1 394      0.041533
     43 H191       -7.1770    1.2520   -0.4030 hc        1 394      0.041533
     44 H192       -7.7850    0.1990   -1.7480 hc        1 394      0.041533
     45 H193       -7.2360    1.8920   -2.0990 hc        1 394      0.041533
     46 H201       -7.3080   -3.4100   -2.3010 hc        1 394      0.043700
     47 H202       -5.8830   -4.5030   -2.5660 hc        1 394      0.043700
     48 H203       -6.6710   -3.6930   -3.9760 hc        1 394      0.043700
     49 H211       -3.3930   -1.8560   -3.3320 hc        1 394      0.043700
     50 H212       -3.6350   -3.5780   -2.8210 hc        1 394      0.043700
     51 H213       -4.2250   -3.0230   -4.4440 hc        1 394      0.043700
     52 H22        -5.5830   -0.5620    3.2440 h1        1 394      0.102700
     53 HN6        -1.6540   -0.6450    4.0880 hn        1 394      0.464800
     54 HO22       -5.3310   -2.9160    3.5100 ho        1 394      0.454000
     55 H62        -2.3610   -2.0580    3.5100 hn        1 394      0.464800
@<TRIPOS>BOND
     1    1    2 ar  
     2    1    6 ar  
     3    1   25 1   
     4    2    3 ar  
     5    2   30 1   
     6    3    4 ar  
     7    3    7 1   
     8    4    5 ar  
     9    4   31 1   
    10    5    6 ar  
    11    5   32 1   
    12    6   24 1   
    13    7   28 1   
    14    7   29 1   
    15    8    9 ar  
    16    8   17 ar  
    17    8   33 1   
    18    9   10 ar  
    19    9   22 1   
    20   10   11 ar  
    21   10   34 1   
    22   11   12 ar  
    23   11   35 1   
    24   12   13 1   
    25   12   17 ar  
    26   13   14 1   
    27   13   20 1   
    28   13   21 1   
    29   14   15 1   
    30   14   36 1   
    31   14   37 1   
    32   15   16 1   
    33   15   38 1   
    34   15   39 1   
    35   16   17 1   
    36   16   18 1   
    37   16   19 1   
    38   18   40 1   
    39   18   41 1   
    40   18   42 1   
    41   19   43 1   
    42   19   44 1   
    43   19   45 1   
    44   20   46 1   
    45   20   47 1   
    46   20   48 1   
    47   21   49 1   
    48   21   50 1   
    49   21   51 1   
    50   22   23 1   
    51   22   26 1   
    52   22   52 1   
    53   23   24 1   
    54   23   27 2   
    55   24   53 1   
    56   24   55 1   
    57   26   54 1   
@<TRIPOS>SUBSTRUCTURE
     1 394         1 TEMP              0 ****  ****    0 ROOT
