@<TRIPOS>MOLECULE
394
   54    56     1     0     0
SMALL
bcc


@<TRIPOS>ATOM
      1 C1         -0.3990    0.2590    0.0260 ca        1 394      0.041900
      2 C2          0.9810    0.2100   -0.2100 ca        1 394     -0.116000
      3 C3          1.8690   -0.0110    0.8420 ca        1 394     -0.116600
      4 C4          1.3680   -0.1830    2.1340 ca        1 394     -0.102000
      5 C5          0.0010   -0.1320    2.3920 ca        1 394     -0.145000
      6 C6         -0.9140    0.0930    1.3480 ca        1 394     -0.019400
      7 C7          3.3700   -0.0600    0.5770 c         1 394      0.910200
      8 C8         -5.1940   -0.3220    0.0870 ca        1 394     -0.126000
      9 C9         -5.0770   -0.9770    1.3130 ca        1 394     -0.116300
     10 C10        -5.4260   -2.3270    1.4010 ca        1 394     -0.105000
     11 C11        -5.8710   -2.9990    0.2690 ca        1 394     -0.129000
     12 C12        -5.9770   -2.3530   -0.9730 ca        1 394     -0.055300
     13 C13        -6.4520   -3.1580   -2.1540 c3        1 394     -0.005700
     14 C14        -6.7850   -2.2600   -3.3460 c3        1 394     -0.068400
     15 C15        -5.7580   -1.1760   -3.5550 c3        1 394     -0.070400
     16 C16        -5.6650   -0.2280   -2.3590 c3        1 394     -0.006700
     17 C17        -5.6190   -0.9980   -1.0660 ca        1 394     -0.052300
     18 C18        -4.3960    0.6070   -2.5290 c3        1 394     -0.087600
     19 C19        -6.8670    0.7110   -2.3420 c3        1 394     -0.087600
     20 C20        -7.7180   -3.9330   -1.7940 c3        1 394     -0.085100
     21 C21        -5.3630   -4.1530   -2.5480 c3        1 394     -0.085100
     22 C22        -4.5620   -0.2260    2.5060 c3        1 394      0.117400
     23 C23        -3.0220   -0.3620    2.5880 c         1 394      0.630100
     24 N6         -2.3070    0.2020    1.5610 n         1 394     -0.434100
     25 F1         -1.2510    0.4750   -1.0160 f         1 394     -0.176900
     26 O22        -5.1520   -0.6650    3.7110 oh        1 394     -0.589800
     27 O23        -2.5370   -0.9270    3.5890 o         1 394     -0.609100
     28 O71         4.1330   -0.2560    1.5630 o         1 394     -0.823800
     29 O72         3.7610    0.0990   -0.6130 o         1 394     -0.823800
     30 H2          1.3820    0.3430   -1.2290 ha        1 394      0.170000
     31 H4          2.0870   -0.3610    2.9510 ha        1 394      0.162000
     32 H5         -0.3670   -0.2800    3.4200 ha        1 394      0.150000
     33 H8         -4.9470    0.7500    0.0200 ha        1 394      0.132000
     34 H10        -5.3480   -2.8510    2.3650 ha        1 394      0.138000
     35 H11        -6.1340   -4.0650    0.3500 ha        1 394      0.130000
     36 H141       -7.7950   -1.7960   -3.1860 hc        1 394      0.039200
     37 H142       -6.8530   -2.8940   -4.2700 hc        1 394      0.039200
     38 H151       -6.0210   -0.5830   -4.4700 hc        1 394      0.045700
     39 H152       -4.7510   -1.6390   -3.7320 hc        1 394      0.045700
     40 H181       -4.3020    0.9430   -3.5900 hc        1 394      0.038533
     41 H182       -3.4890    0.0130   -2.2590 hc        1 394      0.038533
     42 H183       -4.4270    1.5160   -1.8810 hc        1 394      0.038533
     43 H191       -7.8190    0.1350   -2.2670 hc        1 394      0.038533
     44 H192       -6.8880    1.3200   -3.2780 hc        1 394      0.038533
     45 H193       -6.8020    1.4020   -1.4670 hc        1 394      0.038533
     46 H201       -7.4890   -4.7640   -1.0850 hc        1 394      0.036200
     47 H202       -8.1650   -4.3750   -2.7170 hc        1 394      0.036200
     48 H203       -8.4680   -3.2560   -1.3200 hc        1 394      0.036200
     49 H211       -5.7190   -4.7960   -3.3880 hc        1 394      0.036200
     50 H212       -4.4400   -3.6170   -2.8700 hc        1 394      0.036200
     51 H213       -5.1070   -4.8080   -1.6800 hc        1 394      0.036200
     52 H22        -4.8460    0.8650    2.4340 h1        1 394      0.087700
     53 HN6        -2.8280    0.4880    0.7570 hn        1 394      0.317500
     54 HO22       -4.6040   -1.3770    4.0760 ho        1 394      0.427000
@<TRIPOS>BOND
     1    1    2 ar  
     2    1    6 ar  
     3    1   25 1   
     4    2    3 ar  
     5    2   30 1   
     6    3    4 ar  
     7    3    7 1   
     8    4    5 ar  
     9    4   31 1   
    10    5    6 ar  
    11    5   32 1   
    12    6   24 1   
    13    7   28 1   
    14    7   29 1   
    15    8    9 ar  
    16    8   17 ar  
    17    8   33 1   
    18    9   10 ar  
    19    9   22 1   
    20   10   11 ar  
    21   10   34 1   
    22   11   12 ar  
    23   11   35 1   
    24   12   13 1   
    25   12   17 ar  
    26   13   14 1   
    27   13   20 1   
    28   13   21 1   
    29   14   15 1   
    30   14   36 1   
    31   14   37 1   
    32   15   16 1   
    33   15   38 1   
    34   15   39 1   
    35   16   17 1   
    36   16   18 1   
    37   16   19 1   
    38   18   40 1   
    39   18   41 1   
    40   18   42 1   
    41   19   43 1   
    42   19   44 1   
    43   19   45 1   
    44   20   46 1   
    45   20   47 1   
    46   20   48 1   
    47   21   49 1   
    48   21   50 1   
    49   21   51 1   
    50   22   23 1   
    51   22   26 1   
    52   22   52 1   
    53   23   24 1   
    54   23   27 2   
    55   24   53 1   
    56   26   54 1   
@<TRIPOS>SUBSTRUCTURE
     1 394         1 TEMP              0 ****  ****    0 ROOT
