@<TRIPOS>MOLECULE
395
   54    50     1     0     0
SMALL
bcc


@<TRIPOS>ATOM
      1 C1          3.8500    3.3920    2.7110 c1        1 395      0.003000
      2 C2          5.1940    3.7070    2.6170 c1        1 395     -0.114000
      3 C3          6.1610    2.7170    2.8100 c1        1 395     -0.099000
      4 C4          5.7730    1.4090    3.0990 c1        1 395     -0.125000
      5 C5          4.4110    1.0870    3.1950 c1        1 395     -0.125000
      6 C6          3.4530    2.0700    3.0020 c1        1 395     -0.006000
      7 C7          7.6030    3.0530    2.6780 c2        1 395      0.359000
      8 C8         -1.1390   -1.0230    0.5250 c1        1 395     -0.098000
      9 C9         -0.7340    0.3140    0.8440 c1        1 395     -0.111000
     10 C10        -0.9650    1.3910   -0.1040 c1        1 395     -0.120000
     11 C11        -1.5940    1.1190   -1.3540 c1        1 395     -0.126000
     12 C12        -1.9880   -0.1780   -1.6680 c1        1 395     -0.045000
     13 C13        -2.8400   -0.4950   -2.9550 c2        1 395     -0.014000
     14 C14        -3.4410   -1.7860   -3.0210 c3        1 395     -0.148000
     15 C15        -2.6760   -2.9030   -2.4760 c3        1 395     -0.148000
     16 C16        -2.1970   -2.7610   -1.1320 c3        1 395     -0.012000
     17 C17        -1.7520   -1.2890   -0.6930 c2        1 395     -0.055000
     18 C18        -3.3070   -3.2000   -0.2140 c3        1 395     -0.204000
     19 C19        -0.9100   -3.7310   -0.9670 c3        1 395     -0.204000
     20 C20        -3.9720    0.5710   -3.0620 c3        1 395     -0.203000
     21 C21        -1.9290   -0.3430   -4.1690 c3        1 395     -0.203000
     22 C22        -0.1140    0.6190    2.2080 c3        1 395      0.046000
     23 C23         1.3360    1.0200    2.0320 c2        1 395      0.282000
     24 N6          2.0390    1.7500    3.1270 n         1 395     -0.296000
     25 F1          2.9140    4.3890    2.6630 f         1 395     -0.143000
     26 O22        -0.8260    1.6830    2.8240 oh        1 395     -0.317000
     27 O23         1.9370    0.6900    1.0410 o         1 395     -0.358000
     28 O71         8.2400    3.5270    3.6740 o         1 395     -0.559500
     29 O72         8.2150    2.7610    1.6240 o         1 395     -0.559500
     30 H2          5.4760    4.6470    2.4100 ha        1 395      0.169000
     31 H4          6.4470    0.7220    3.2340 ha        1 395      0.156500
     32 H5          4.1370    0.1720    3.3970 ha        1 395      0.156500
     33 H8         -0.9780   -1.7830    1.1980 ha        1 395      0.138000
     34 H10        -0.6860    2.3120    0.1180 ha        1 395      0.138000
     35 H11        -1.7470    1.8390   -1.9880 ha        1 395      0.134000
     36 H141       -4.3270   -1.7440   -2.5260 hc        1 395      0.080000
     37 H142       -3.6270   -1.9800   -3.9550 hc        1 395      0.080000
     38 H151       -3.2730   -3.7180   -2.5000 hc        1 395      0.082500
     39 H152       -1.8550   -3.0340   -3.0840 hc        1 395      0.082500
     40 H181       -3.6050   -4.0760   -0.4750 hc        1 395      0.076333
     41 H182       -4.0650   -2.5580   -0.2770 hc        1 395      0.076333
     42 H183       -2.9780   -3.2300    0.7070 hc        1 395      0.076333
     43 H191       -0.1420   -3.3450   -1.4460 hc        1 395      0.076333
     44 H192       -1.1240   -4.6430   -1.3540 hc        1 395      0.076333
     45 H193       -0.6920   -3.8200   -0.0260 hc        1 395      0.076333
     46 H201       -4.4220    0.6780   -2.1600 hc        1 395      0.076167
     47 H202       -3.5850    1.4360   -3.3410 hc        1 395      0.076167
     48 H203       -4.6350    0.2810   -3.7280 hc        1 395      0.076167
     49 H211       -2.3720   -0.7000   -4.9490 hc        1 395      0.076167
     50 H212       -1.0980   -0.8300   -4.0150 hc        1 395      0.076167
     51 H213       -1.7320    0.5960   -4.3090 hc        1 395      0.076167
     52 H22        -0.1650   -0.2190    2.8030 h1        1 395      0.142000
     53 HN6         1.5550    2.0510    3.8710 hn        1 395      0.225000
     54 HO22       -1.2480    1.3820    3.5360 ho        1 395      0.203000
@<TRIPOS>BOND
     1    1    6 1   
     2    1   25 1   
     3    2    3 1   
     4    2   30 1   
     5    3    7 1   
     6    4    5 1   
     7    4   31 1   
     8    5   32 1   
     9    6   24 1   
    10    7   28 1   
    11    7   29 1   
    12    8   17 1   
    13    8   33 1   
    14    9   10 1   
    15    9   22 1   
    16   10   34 1   
    17   11   12 1   
    18   11   35 1   
    19   12   17 1   
    20   13   14 1   
    21   13   20 1   
    22   13   21 1   
    23   14   15 1   
    24   14   36 1   
    25   14   37 1   
    26   15   16 1   
    27   15   38 1   
    28   15   39 1   
    29   16   17 1   
    30   16   18 1   
    31   16   19 1   
    32   18   40 1   
    33   18   41 1   
    34   18   42 1   
    35   19   43 1   
    36   19   44 1   
    37   19   45 1   
    38   20   46 1   
    39   20   47 1   
    40   20   48 1   
    41   21   49 1   
    42   21   50 1   
    43   21   51 1   
    44   22   23 1   
    45   22   26 1   
    46   22   52 1   
    47   23   24 1   
    48   23   27 1   
    49   24   53 1   
    50   26   54 1   
@<TRIPOS>SUBSTRUCTURE
     1 395         1 TEMP              0 ****  ****    0 ROOT
