@<TRIPOS>MOLECULE
395
   54    56     1     0     0
SMALL
bcc


@<TRIPOS>ATOM
      1 C1         -0.0300    0.4720    0.2140 ca        1 395      0.040900
      2 C2          1.3610    0.4810    0.0400 ca        1 395     -0.114000
      3 C3          2.1930   -0.1350    0.9730 ca        1 395     -0.117600
      4 C4          1.6240   -0.7630    2.0840 ca        1 395     -0.101000
      5 C5          0.2460   -0.7870    2.2760 ca        1 395     -0.150000
      6 C6         -0.6150   -0.1720    1.3480 ca        1 395     -0.014400
      7 C7          3.7050   -0.1210    0.7770 c         1 395      0.910200
      8 C8         -4.9090    1.8460    3.5170 ca        1 395     -0.101000
      9 C9         -4.6580    1.0970    2.3690 ca        1 395     -0.116300
     10 C10        -4.7490    1.7160    1.1180 ca        1 395     -0.126000
     11 C11        -5.0890    3.0600    1.0360 ca        1 395     -0.125000
     12 C12        -5.3520    3.8200    2.1860 ca        1 395     -0.055300
     13 C13        -5.7300    5.2660    2.0100 c3        1 395     -0.005700
     14 C14        -6.2910    5.8540    3.3060 c3        1 395     -0.068400
     15 C15        -5.4760    5.4630    4.5120 c3        1 395     -0.070400
     16 C16        -5.4590    3.9500    4.7370 c3        1 395     -0.004700
     17 C17        -5.2390    3.2090    3.4450 ca        1 395     -0.058300
     18 C18        -4.3310    3.6470    5.7230 c3        1 395     -0.086100
     19 C19        -6.7810    3.5020    5.3550 c3        1 395     -0.086100
     20 C20        -6.8100    5.4070    0.9380 c3        1 395     -0.084600
     21 C21        -4.5000    6.0560    1.5710 c3        1 395     -0.084600
     22 C22        -4.2930   -0.3560    2.4540 c3        1 395      0.118400
     23 C23        -2.7570   -0.5070    2.5820 c         1 395      0.633100
     24 N6         -2.0220   -0.1860    1.4710 n         1 395     -0.434100
     25 F1         -0.8250    1.0790   -0.7120 f         1 395     -0.176900
     26 O22        -4.9300   -1.0070    3.5340 oh        1 395     -0.590800
     27 O23        -2.3020   -0.9390    3.6620 o         1 395     -0.614100
     28 O71         4.4140   -0.6940    1.6490 o         1 395     -0.823800
     29 O72         4.1570    0.4630   -0.2470 o         1 395     -0.823800
     30 H2          1.8130    0.9760   -0.8360 ha        1 395      0.170000
     31 H4          2.3000   -1.2440    2.8110 ha        1 395      0.162000
     32 H5         -0.1700   -1.2880    3.1640 ha        1 395      0.153000
     33 H8         -4.8490    1.3510    4.4990 ha        1 395      0.139000
     34 H10        -4.5550    1.1430    0.1990 ha        1 395      0.131000
     35 H11        -5.1470    3.5370    0.0450 ha        1 395      0.132000
     36 H141       -7.3500    5.5060    3.4380 hc        1 395      0.039700
     37 H142       -6.3150    6.9730    3.2170 hc        1 395      0.039700
     38 H151       -4.4220    5.8260    4.3870 hc        1 395      0.043200
     39 H152       -5.8960    5.9620    5.4250 hc        1 395      0.043200
     40 H181       -4.4120    2.6050    6.1150 hc        1 395      0.037367
     41 H182       -4.3860    4.3500    6.5880 hc        1 395      0.037367
     42 H183       -3.3380    3.7650    5.2260 hc        1 395      0.037367
     43 H191       -6.9310    4.0030    6.3410 hc        1 395      0.037367
     44 H192       -6.7760    2.3960    5.5110 hc        1 395      0.037367
     45 H193       -7.6360    3.7610    4.6860 hc        1 395      0.037367
     46 H201       -6.3920    5.2120   -0.0780 hc        1 395      0.036700
     47 H202       -7.6420    4.6880    1.1270 hc        1 395      0.036700
     48 H203       -7.2220    6.4450    0.9520 hc        1 395      0.036700
     49 H211       -3.7070    6.0160    2.3550 hc        1 395      0.036700
     50 H212       -4.7760    7.1230    1.3910 hc        1 395      0.036700
     51 H213       -4.0860    5.6280    0.6270 hc        1 395      0.036700
     52 H22        -4.6620   -0.9040    1.5390 h1        1 395      0.087700
     53 HN6        -2.5110    0.2520    0.7190 hn        1 395      0.318500
     54 HO22       -4.3630   -0.9220    4.3170 ho        1 395      0.427000
@<TRIPOS>BOND
     1    1    2 ar  
     2    1    6 ar  
     3    1   25 1   
     4    2    3 ar  
     5    2   30 1   
     6    3    4 ar  
     7    3    7 1   
     8    4    5 ar  
     9    4   31 1   
    10    5    6 ar  
    11    5   32 1   
    12    6   24 1   
    13    7   28 1   
    14    7   29 1   
    15    8    9 ar  
    16    8   17 ar  
    17    8   33 1   
    18    9   10 ar  
    19    9   22 1   
    20   10   11 ar  
    21   10   34 1   
    22   11   12 ar  
    23   11   35 1   
    24   12   13 1   
    25   12   17 ar  
    26   13   14 1   
    27   13   20 1   
    28   13   21 1   
    29   14   15 1   
    30   14   36 1   
    31   14   37 1   
    32   15   16 1   
    33   15   38 1   
    34   15   39 1   
    35   16   17 1   
    36   16   18 1   
    37   16   19 1   
    38   18   40 1   
    39   18   41 1   
    40   18   42 1   
    41   19   43 1   
    42   19   44 1   
    43   19   45 1   
    44   20   46 1   
    45   20   47 1   
    46   20   48 1   
    47   21   49 1   
    48   21   50 1   
    49   21   51 1   
    50   22   23 1   
    51   22   26 1   
    52   22   52 1   
    53   23   24 1   
    54   23   27 2   
    55   24   53 1   
    56   26   54 1   
@<TRIPOS>SUBSTRUCTURE
     1 395         1 TEMP              0 ****  ****    0 ROOT
