@<TRIPOS>MOLECULE
395
   54    56     1     0     0
SMALL
bcc


@<TRIPOS>ATOM
      1 C1         -0.0260    0.4810    0.2230 ca        1 395      0.040900
      2 C2          1.3640    0.4920    0.0510 ca        1 395     -0.114000
      3 C3          2.1950   -0.1300    0.9830 ca        1 395     -0.117600
      4 C4          1.6240   -0.7650    2.0880 ca        1 395     -0.101000
      5 C5          0.2460   -0.7910    2.2770 ca        1 395     -0.150000
      6 C6         -0.6130   -0.1700    1.3510 ca        1 395     -0.014400
      7 C7          3.7070   -0.1140    0.7900 c         1 395      0.910200
      8 C8         -4.9090    1.8440    3.5140 ca        1 395     -0.101000
      9 C9         -4.6590    1.0940    2.3660 ca        1 395     -0.116300
     10 C10        -4.7490    1.7130    1.1150 ca        1 395     -0.126000
     11 C11        -5.0900    3.0570    1.0330 ca        1 395     -0.125000
     12 C12        -5.3520    3.8180    2.1840 ca        1 395     -0.055300
     13 C13        -5.7300    5.2640    2.0080 c3        1 395     -0.005700
     14 C14        -6.2900    5.8530    3.3040 c3        1 395     -0.068400
     15 C15        -5.4740    5.4600    4.5100 c3        1 395     -0.070400
     16 C16        -5.4580    3.9480    4.7350 c3        1 395     -0.004700
     17 C17        -5.2380    3.2060    3.4420 ca        1 395     -0.058300
     18 C18        -4.3290    3.6430    5.7200 c3        1 395     -0.086100
     19 C19        -6.7790    3.5000    5.3520 c3        1 395     -0.086100
     20 C20        -6.8110    5.4050    0.9360 c3        1 395     -0.084600
     21 C21        -4.5000    6.0530    1.5680 c3        1 395     -0.084600
     22 C22        -4.2930   -0.3580    2.4510 c3        1 395      0.118400
     23 C23        -2.7570   -0.5100    2.5810 c         1 395      0.633100
     24 N6         -2.0210   -0.1860    1.4710 ns        1 395     -0.434100
     25 F1         -0.8200    1.0940   -0.7010 f         1 395     -0.176900
     26 O22        -4.9320   -1.0100    3.5290 oh        1 395     -0.590800
     27 O23        -2.3040   -0.9430    3.6600 o         1 395     -0.614100
     28 O71         4.4150   -0.6930    1.6600 o         1 395     -0.823800
     29 O72         4.1620    0.4780   -0.2290 o         1 395     -0.823800
     30 H2          1.8180    0.9930   -0.8200 ha        1 395      0.170000
     31 H4          2.2990   -1.2510    2.8130 ha        1 395      0.162000
     32 H5         -0.1720   -1.2980    3.1610 ha        1 395      0.153000
     33 H8         -4.8480    1.3480    4.4960 ha        1 395      0.139000
     34 H10        -4.5560    1.1400    0.1960 ha        1 395      0.131000
     35 H11        -5.1470    3.5340    0.0420 ha        1 395      0.132000
     36 H141       -7.3480    5.5050    3.4370 hc        1 395      0.039700
     37 H142       -6.3130    6.9710    3.2150 hc        1 395      0.039700
     38 H151       -4.4190    5.8220    4.3840 hc        1 395      0.043200
     39 H152       -5.8930    5.9590    5.4230 hc        1 395      0.043200
     40 H181       -4.4110    2.6020    6.1120 hc        1 395      0.037367
     41 H182       -4.3840    4.3470    6.5850 hc        1 395      0.037367
     42 H183       -3.3370    3.7610    5.2220 hc        1 395      0.037367
     43 H191       -6.9290    4.0010    6.3390 hc        1 395      0.037367
     44 H192       -7.6340    3.7590    4.6840 hc        1 395      0.037367
     45 H193       -6.7750    2.3940    5.5090 hc        1 395      0.037367
     46 H201       -7.2230    6.4430    0.9510 hc        1 395      0.036700
     47 H202       -6.3930    5.2100   -0.0800 hc        1 395      0.036700
     48 H203       -7.6420    4.6860    1.1260 hc        1 395      0.036700
     49 H211       -4.0860    5.6250    0.6230 hc        1 395      0.036700
     50 H212       -3.7060    6.0140    2.3510 hc        1 395      0.036700
     51 H213       -4.7750    7.1200    1.3870 hc        1 395      0.036700
     52 H22        -4.6610   -0.9060    1.5340 h1        1 395      0.087700
     53 HN6        -2.5090    0.2540    0.7200 hn        1 395      0.318500
     54 HO22       -4.3660   -0.9260    4.3130 ho        1 395      0.427000
@<TRIPOS>BOND
     1    1    2 ar  
     2    1    6 ar  
     3    1   25 1   
     4    2    3 ar  
     5    2   30 1   
     6    3    4 ar  
     7    3    7 1   
     8    4    5 ar  
     9    4   31 1   
    10    5    6 ar  
    11    5   32 1   
    12    6   24 1   
    13    7   28 1   
    14    7   29 1   
    15    8    9 ar  
    16    8   17 ar  
    17    8   33 1   
    18    9   10 ar  
    19    9   22 1   
    20   10   11 ar  
    21   10   34 1   
    22   11   12 ar  
    23   11   35 1   
    24   12   13 1   
    25   12   17 ar  
    26   13   14 1   
    27   13   20 1   
    28   13   21 1   
    29   14   15 1   
    30   14   36 1   
    31   14   37 1   
    32   15   16 1   
    33   15   38 1   
    34   15   39 1   
    35   16   17 1   
    36   16   18 1   
    37   16   19 1   
    38   18   40 1   
    39   18   41 1   
    40   18   42 1   
    41   19   43 1   
    42   19   44 1   
    43   19   45 1   
    44   20   46 1   
    45   20   47 1   
    46   20   48 1   
    47   21   49 1   
    48   21   50 1   
    49   21   51 1   
    50   22   23 1   
    51   22   26 1   
    52   22   52 1   
    53   23   24 1   
    54   23   27 2   
    55   24   53 1   
    56   26   54 1   
@<TRIPOS>SUBSTRUCTURE
     1 395         1 TEMP              0 ****  ****    0 ROOT
