@<TRIPOS>MOLECULE
396
   62    56     1     0     0
SMALL
bcc


@<TRIPOS>ATOM
      1 C26         6.8520   -2.8600   -2.8120 c3        1 396     -0.079000
      2 C27         8.2040   -3.6570   -2.8900 c3        1 396     -0.171000
      3 C29         8.1450   -4.6740   -1.7610 c3        1 396     -0.171000
      4 C25         7.1190   -4.3040   -1.0230 c3        1 396     -0.079000
      5 N4          6.1140   -3.5290   -2.0060 n3        1 396     -0.252000
      6 C24         5.2890   -2.6140   -1.2340 c3        1 396     -0.086000
      7 C23         3.8370   -2.6890   -1.7330 c3        1 396     -0.028000
      8 N3          2.9240   -2.4730   -0.6090 n         1 396     -0.364000
      9 C22         1.5730   -1.9910   -0.8510 c2        1 396      0.355000
     10 O4          1.0250   -2.2380   -1.8900 o         1 396     -0.383000
     11 C20         0.8120   -1.2430    0.2610 c2        1 396     -0.111000
     12 C18         0.1920   -0.3060   -0.5660 c2        1 396     -0.076000
     13 C19         0.3430   -1.4480    1.5590 c1        1 396      0.080000
     14 O3          1.0460   -1.9960    2.6760 o         1 396     -0.264000
     15 C17        -0.7490   -0.7150    2.0310 c2        1 396     -0.156000
     16 C15        -1.3760    0.2320    1.1960 c1        1 396     -0.032000
     17 C16        -0.9110    0.4340   -0.0890 c1        1 396      0.003000
     18 N2         -1.7320    1.3770   -0.7030 n1        1 396     -0.177000
     19 C21        -2.1690    0.9190   -2.0060 c2        1 396     -0.075000
     20 C14        -2.7190    1.7620    0.2160 c1        1 396      0.066000
     21 C1         -3.7670    2.7010    0.1330 c1        1 396     -0.145000
     22 C13        -2.5100    1.0670    1.3830 c1        1 396     -0.018000
     23 C4         -3.3640    1.3000    2.5200 c1        1 396     -0.064000
     24 C5         -3.3230    0.7770    3.9470 c2        1 396      0.367000
     25 O1         -2.6230   -0.1290    4.3520 o         1 396     -0.316000
     26 N1         -4.3610    1.4280    4.6840 n         1 396     -0.403000
     27 C6         -5.0450    2.3000    3.8000 c2        1 396      0.365000
     28 O2         -5.9990    3.0320    4.0940 o         1 396     -0.286000
     29 C3         -4.3750    2.2100    2.4350 c2        1 396     -0.139000
     30 C2         -4.5880    2.9240    1.2290 c1        1 396      0.067000
     31 C7         -5.5580    3.8980    0.8810 c1        1 396     -0.052000
     32 C12        -6.8090    3.4990    0.4340 c1        1 396     -0.114000
     33 C11        -7.7200    4.4460   -0.0170 c1        1 396     -0.114000
     34 C10        -7.3810    5.7800   -0.0190 c1        1 396     -0.114000
     35 C9         -6.1380    6.1760    0.4260 c1        1 396     -0.114000
     36 C8         -5.2220    5.2250    0.8780 c1        1 396     -0.038000
     37 CL5        -3.6400    5.7270    1.4230 cl        1 396     -0.007000
     38 H26         6.4370   -2.8140   -3.6870 h1        1 396      0.083250
     39 H26A        7.0040   -1.9810   -2.4700 h1        1 396      0.083250
     40 H27         8.2770   -4.0930   -3.7180 hc        1 396      0.085750
     41 H27A        8.9480   -3.0610   -2.7600 hc        1 396      0.085750
     42 H29         8.9890   -4.6480   -1.2240 hc        1 396      0.085750
     43 H29A        7.9960   -5.5920   -2.1290 hc        1 396      0.085750
     44 H25         7.4180   -3.7060   -0.3100 h1        1 396      0.083250
     45 H25A        6.6740   -5.1000   -0.6380 h1        1 396      0.083250
     46 H24         5.6300   -1.6840   -1.3440 h1        1 396      0.074000
     47 H24A        5.3220   -2.8620   -0.2950 h1        1 396      0.074000
     48 H23         3.6770   -3.5470   -2.1110 h1        1 396      0.106000
     49 H23A        3.6860   -1.9850   -2.4260 h1        1 396      0.106000
     50 HN3         3.1750   -2.7060    0.2230 hn        1 396      0.239000
     51 H18         0.5980   -0.0740   -1.4350 ha        1 396      0.168000
     52 HO3         0.7300   -2.8180    2.8570 ho        1 396      0.234000
     53 H17        -1.0680   -0.8540    2.9160 ha        1 396      0.177000
     54 H21        -2.7050    1.5940   -2.4160 ha        1 396      0.094000
     55 H21A       -2.7160    0.0670   -1.9020 ha        1 396      0.094000
     56 H21B       -1.3880    0.7390   -2.5680 ha        1 396      0.094000
     57 H1         -3.8840    3.2100   -0.6560 ha        1 396      0.155000
     58 HN1        -4.5890    1.2610    5.5670 hn        1 396      0.262000
     59 H12        -7.0440    2.5760    0.4350 ha        1 396      0.143000
     60 H11        -8.6360    4.1530   -0.3440 ha        1 396      0.143000
     61 H10        -8.0310    6.4550   -0.3400 ha        1 396      0.143000
     62 H9         -5.8980    7.1220    0.4240 ha        1 396      0.143000
@<TRIPOS>BOND
     1    1    2 1   
     2    1    5 1   
     3    1   38 1   
     4    1   39 1   
     5    2    3 1   
     6    2   40 1   
     7    2   41 1   
     8    3    4 1   
     9    3   42 1   
    10    3   43 1   
    11    4    5 1   
    12    4   44 1   
    13    4   45 1   
    14    5    6 1   
    15    6    7 1   
    16    6   46 1   
    17    6   47 1   
    18    7    8 1   
    19    7   48 1   
    20    7   49 1   
    21    8    9 1   
    22    8   50 1   
    23    9   10 1   
    24    9   11 1   
    25   11   12 1   
    26   11   13 1   
    27   12   17 1   
    28   12   51 1   
    29   13   15 1   
    30   14   52 1   
    31   15   16 1   
    32   15   53 1   
    33   18   20 1   
    34   19   54 1   
    35   19   55 1   
    36   19   56 1   
    37   20   22 1   
    38   21   30 1   
    39   21   57 1   
    40   23   24 1   
    41   23   29 1   
    42   24   25 1   
    43   24   26 1   
    44   26   27 1   
    45   26   58 1   
    46   27   28 1   
    47   27   29 1   
    48   29   30 1   
    49   31   36 1   
    50   32   33 1   
    51   32   59 1   
    52   33   60 1   
    53   34   35 1   
    54   34   61 1   
    55   35   62 1   
    56   36   37 1   
@<TRIPOS>SUBSTRUCTURE
     1 396         1 TEMP              0 ****  ****    0 ROOT
