@<TRIPOS>MOLECULE
396
   63    68     1     0     0
SMALL
bcc


@<TRIPOS>ATOM
      1 C26        -0.2760   -2.5750    2.8620 c3        1 396      0.157800
      2 C27         1.1640   -2.4630    3.3870 c3        1 396     -0.094900
      3 C29         1.3310   -1.0320    3.8790 c3        1 396     -0.094900
      4 C25        -0.0210   -0.3390    3.6490 c3        1 396      0.157800
      5 N4         -0.9450   -1.2760    3.0020 n3        1 396     -0.732600
      6 C24        -1.5530   -0.7830    1.7870 c3        1 396      0.162800
      7 C23        -2.7210    0.1700    2.1410 c3        1 396      0.099800
      8 N3         -3.4260    0.6550    0.9200 n4        1 396     -0.667800
      9 C22        -4.4670    1.6990    1.2630 c         1 396      0.586700
     10 O4         -4.1470    2.8310    0.9110 o         1 396     -0.454100
     11 C20        -5.6840    1.3020    1.9600 ca        1 396     -0.202600
     12 C18        -6.3810    2.3700    2.5760 ca        1 396     -0.064000
     13 C19        -6.2090   -0.0080    2.0300 ca        1 396      0.152100
     14 O3         -5.5140   -1.0200    1.4070 oh        1 396     -0.556100
     15 C17        -7.4080   -0.2890    2.7030 ca        1 396     -0.153000
     16 C15        -8.0850    0.7490    3.3130 cp        1 396      0.031000
     17 C16        -7.5640    2.1060    3.2520 ca        1 396     -0.025200
     18 N2         -8.4070    2.9680    3.9770 na        1 396     -0.069300
     19 C21        -8.3420    4.3940    3.9500 c3        1 396      0.022600
     20 C14        -9.4960    2.2120    4.4510 ca        1 396      0.033800
     21 C1        -10.6010    2.6210    5.2000 ca        1 396     -0.136000
     22 C13        -9.3130    0.8150    4.0740 cp        1 396     -0.059000
     23 C4        -10.2600   -0.0910    4.4840 ca        1 396     -0.066600
     24 C5        -10.3670   -1.5780    4.2820 c         1 396      0.730100
     25 O1         -9.5900   -2.3210    3.6720 o         1 396     -0.599500
     26 N1        -11.5450   -1.9840    4.9300 n         1 396     -0.612500
     27 C6        -12.2130   -0.8810    5.5380 c         1 396      0.725100
     28 O2        -13.2670   -0.9890    6.1590 o         1 396     -0.527500
     29 C3        -11.3800    0.3360    5.2470 ca        1 396     -0.149600
     30 C2        -11.5570    1.6700    5.6080 cp        1 396      0.097000
     31 C7        -12.7080    2.1260    6.3940 cp        1 396     -0.078000
     32 C12       -13.9360    2.3490    5.7580 ca        1 396     -0.090000
     33 C11       -15.0380    2.7920    6.4850 ca        1 396     -0.122000
     34 C10       -14.9260    3.0150    7.8570 ca        1 396     -0.098000
     35 C9        -13.7120    2.7980    8.5060 ca        1 396     -0.120000
     36 C8        -12.6030    2.3570    7.7760 ca        1 396      0.040400
     37 CL5       -11.1340    2.0980    8.5920 cl        1 396     -0.086400
     38 H26        -0.2730   -2.9440    1.8000 h1        1 396      0.050700
     39 H26A       -0.8650   -3.3050    3.4810 h1        1 396      0.050700
     40 H27         1.8960   -2.6980    2.5760 hc        1 396      0.062450
     41 H27A        1.3290   -3.1950    4.2160 hc        1 396      0.062450
     42 H29         1.5970   -1.0080    4.9640 hc        1 396      0.062450
     43 H29A        2.1410   -0.5060    3.3180 hc        1 396      0.062450
     44 H25         0.1190    0.6010    3.0480 h1        1 396      0.050700
     45 H25A       -0.4850   -0.0540    4.6330 h1        1 396      0.050700
     46 H24        -0.8280   -0.2290    1.1190 h1        1 396      0.047200
     47 H24A       -1.9640   -1.6560    1.2040 h1        1 396      0.047200
     48 H23        -2.3320    1.0680    2.7000 hx        1 396      0.114700
     49 H23A       -3.4800   -0.3670    2.7810 hx        1 396      0.114700
     50 HN3        -3.8780   -0.1420    0.4500 hn        1 396      0.462800
     51 H18        -5.9750    3.3940    2.5060 ha        1 396      0.173000
     52 HO3        -6.0330   -1.8400    1.4660 ho        1 396      0.472000
     53 H17        -7.8090   -1.3190    2.7490 ha        1 396      0.201000
     54 H21        -7.2670    4.7160    3.9500 h1        1 396      0.063700
     55 H21A       -8.8500    4.8040    4.8640 h1        1 396      0.063700
     56 H21B       -8.8490    4.8060    3.0340 h1        1 396      0.063700
     57 H1        -10.7340    3.6760    5.4850 ha        1 396      0.167000
     58 HN1       -11.8680   -2.9180    4.9710 hn        1 396      0.359500
     59 H12       -14.0300    2.1630    4.6770 ha        1 396      0.142000
     60 H11       -15.9990    2.9580    5.9750 ha        1 396      0.148000
     61 H10       -15.7990    3.3590    8.4340 ha        1 396      0.150000
     62 H9        -13.6260    2.9680    9.5910 ha        1 396      0.158000
     63 H32        -2.7430    1.0730    0.2750 hn        1 396      0.462800
@<TRIPOS>BOND
     1    1    2 1   
     2    1    5 1   
     3    1   38 1   
     4    1   39 1   
     5    2    3 1   
     6    2   40 1   
     7    2   41 1   
     8    3    4 1   
     9    3   42 1   
    10    3   43 1   
    11    4    5 1   
    12    4   44 1   
    13    4   45 1   
    14    5    6 1   
    15    6    7 1   
    16    6   46 1   
    17    6   47 1   
    18    7    8 1   
    19    7   48 1   
    20    7   49 1   
    21    8    9 1   
    22    8   50 1   
    23    8   63 1   
    24    9   10 2   
    25    9   11 1   
    26   11   12 ar  
    27   11   13 ar  
    28   12   17 ar  
    29   12   51 1   
    30   13   14 1   
    31   13   15 ar  
    32   14   52 1   
    33   15   16 ar  
    34   15   53 1   
    35   16   17 ar  
    36   16   22 1   
    37   17   18 1   
    38   18   19 1   
    39   18   20 1   
    40   19   54 1   
    41   19   55 1   
    42   19   56 1   
    43   20   21 ar  
    44   20   22 ar  
    45   21   30 ar  
    46   21   57 1   
    47   22   23 ar  
    48   23   24 1   
    49   23   29 ar  
    50   24   25 2   
    51   24   26 1   
    52   26   27 1   
    53   26   58 1   
    54   27   28 2   
    55   27   29 1   
    56   29   30 ar  
    57   30   31 1   
    58   31   32 ar  
    59   31   36 ar  
    60   32   33 ar  
    61   32   59 1   
    62   33   34 ar  
    63   33   60 1   
    64   34   35 ar  
    65   34   61 1   
    66   35   36 ar  
    67   35   62 1   
    68   36   37 1   
@<TRIPOS>SUBSTRUCTURE
     1 396         1 TEMP              0 ****  ****    0 ROOT
