@<TRIPOS>MOLECULE
396
   62    67     1     0     0
SMALL
bcc


@<TRIPOS>ATOM
      1 C26        -8.8350   -2.5260    0.1400 c3        1 396      0.157300
      2 C27       -10.0330   -2.2970    1.0730 c3        1 396     -0.092400
      3 C29       -10.1970   -0.7880    1.1920 c3        1 396     -0.092400
      4 C25        -9.0880   -0.1680    0.3290 c3        1 396      0.157300
      5 N4         -8.3210   -1.2340   -0.3210 n3        1 396     -0.725600
      6 C24        -6.8810   -1.1040   -0.1830 c3        1 396      0.144800
      7 C23        -6.3410    0.1270   -0.9520 c3        1 396      0.084000
      8 N3         -4.9090    0.2340   -0.9160 n         1 396     -0.556900
      9 C22        -4.2470    1.0750   -0.0480 c         1 396      0.676700
     10 O4         -4.8780    1.8790    0.6750 o         1 396     -0.628100
     11 C20        -2.7570    1.0350   -0.0450 ca        1 396     -0.197600
     12 C18        -2.0960   -0.2010   -0.1300 ca        1 396     -0.103000
     13 C19        -2.0210    2.2310    0.0690 ca        1 396      0.169100
     14 O3         -2.5810    3.4760    0.1690 oh        1 396     -0.497100
     15 C17        -0.6060    2.2280    0.0540 ca        1 396     -0.100000
     16 C15         0.0440    1.0180   -0.0540 cp        1 396     -0.031000
     17 C16        -0.7070   -0.2180   -0.1330 ca        1 396     -0.047200
     18 N2          0.1830   -1.3250   -0.1440 na        1 396     -0.069300
     19 C21        -0.1770   -2.6110   -0.6500 c3        1 396      0.022600
     20 C14         1.4940   -0.8090   -0.1970 ca        1 396      0.018800
     21 C1          2.7030   -1.4950   -0.2680 ca        1 396     -0.146000
     22 C13         1.4500    0.6490   -0.0940 cp        1 396     -0.014000
     23 C4          2.6420    1.3210   -0.0560 ca        1 396     -0.082600
     24 C5          2.9580    2.7840    0.0600 c         1 396      0.725100
     25 O1          2.1880    3.7430    0.1470 o         1 396     -0.575500
     26 N1          4.3660    2.8900    0.0500 n         1 396     -0.623500
     27 C6          4.9840    1.6170   -0.0600 c         1 396      0.727100
     28 O2          6.2050    1.4590   -0.0940 o         1 396     -0.564500
     29 C3          3.8770    0.6070   -0.1280 ca        1 396     -0.159600
     30 C2          3.9170   -0.7760   -0.2310 cp        1 396      0.067000
     31 C7          5.1750   -1.5270   -0.3190 cp        1 396     -0.051000
     32 C12         5.8240   -1.6420   -1.5560 ca        1 396     -0.093000
     33 C11         7.0110   -2.3620   -1.6680 ca        1 396     -0.128000
     34 C10         7.5650   -2.9760   -0.5440 ca        1 396     -0.110000
     35 C9          6.9330   -2.8710    0.6930 ca        1 396     -0.126000
     36 C8          5.7390   -2.1500    0.8060 ca        1 396      0.039400
     37 CL5         4.9930   -2.0400    2.3300 cl        1 396     -0.085400
     38 H26        -8.0500   -3.1370    0.6650 h1        1 396      0.044700
     39 H26A       -9.1540   -3.0940   -0.7760 h1        1 396      0.044700
     40 H27       -10.9520   -2.7680    0.6480 hc        1 396      0.048200
     41 H27A       -9.8450   -2.7610    2.0720 hc        1 396      0.048200
     42 H29       -11.2010   -0.4630    0.8260 hc        1 396      0.048200
     43 H29A      -10.0980   -0.4540    2.2540 hc        1 396      0.048200
     44 H25        -9.5330    0.4610   -0.4900 h1        1 396      0.044700
     45 H25A       -8.4380    0.5010    0.9590 h1        1 396      0.044700
     46 H24        -6.5570   -1.0270    0.8960 h1        1 396      0.033700
     47 H24A       -6.4150   -2.0360   -0.6130 h1        1 396      0.033700
     48 H23        -6.6570    0.0550   -2.0320 h1        1 396      0.072700
     49 H23A       -6.7860    1.0650   -0.5110 h1        1 396      0.072700
     50 HN3        -4.3880   -0.4320   -1.4350 hn        1 396      0.311500
     51 H18        -2.6660   -1.1410   -0.1680 ha        1 396      0.138000
     52 HO3        -3.5260    3.3940    0.3860 ho        1 396      0.457000
     53 H17        -0.0540    3.1810    0.1330 ha        1 396      0.194000
     54 H21        -0.2340   -2.6210   -1.7730 h1        1 396      0.050700
     55 H21A        0.5870   -3.3620   -0.3180 h1        1 396      0.050700
     56 H21B       -1.1790   -2.8970   -0.2330 h1        1 396      0.050700
     57 H1          2.7290   -2.5920   -0.3430 ha        1 396      0.154000
     58 HN1         4.8600    3.7420    0.1270 hn        1 396      0.349500
     59 H12         5.3930   -1.1490   -2.4410 ha        1 396      0.142000
     60 H11         7.5130   -2.4400   -2.6430 ha        1 396      0.139000
     61 H10         8.5050   -3.5400   -0.6310 ha        1 396      0.139000
     62 H9          7.3730   -3.3500    1.5810 ha        1 396      0.150000
@<TRIPOS>BOND
     1    1    2 1   
     2    1    5 1   
     3    1   38 1   
     4    1   39 1   
     5    2    3 1   
     6    2   40 1   
     7    2   41 1   
     8    3    4 1   
     9    3   42 1   
    10    3   43 1   
    11    4    5 1   
    12    4   44 1   
    13    4   45 1   
    14    5    6 1   
    15    6    7 1   
    16    6   46 1   
    17    6   47 1   
    18    7    8 1   
    19    7   48 1   
    20    7   49 1   
    21    8    9 1   
    22    8   50 1   
    23    9   10 2   
    24    9   11 1   
    25   11   12 ar  
    26   11   13 ar  
    27   12   17 ar  
    28   12   51 1   
    29   13   14 1   
    30   13   15 ar  
    31   14   52 1   
    32   15   16 ar  
    33   15   53 1   
    34   16   17 ar  
    35   16   22 1   
    36   17   18 1   
    37   18   19 1   
    38   18   20 1   
    39   19   54 1   
    40   19   55 1   
    41   19   56 1   
    42   20   21 ar  
    43   20   22 ar  
    44   21   30 ar  
    45   21   57 1   
    46   22   23 ar  
    47   23   24 1   
    48   23   29 ar  
    49   24   25 2   
    50   24   26 1   
    51   26   27 1   
    52   26   58 1   
    53   27   28 2   
    54   27   29 1   
    55   29   30 ar  
    56   30   31 1   
    57   31   32 ar  
    58   31   36 ar  
    59   32   33 ar  
    60   32   59 1   
    61   33   34 ar  
    62   33   60 1   
    63   34   35 ar  
    64   34   61 1   
    65   35   36 ar  
    66   35   62 1   
    67   36   37 1   
@<TRIPOS>SUBSTRUCTURE
     1 396         1 TEMP              0 ****  ****    0 ROOT
