@<TRIPOS>MOLECULE
396
   63    68     1     0     0
SMALL
bcc


@<TRIPOS>ATOM
      1 C26        -0.3700   -2.3050    1.5930 c3        1 396      0.154800
      2 C27         0.7770   -2.9930    2.3490 c3        1 396     -0.094400
      3 C29         1.0610   -2.1300    3.5710 c3        1 396     -0.094400
      4 C25         0.0530   -0.9720    3.5200 c3        1 396      0.154800
      5 N4         -0.7470   -1.0710    2.2940 n3        1 396     -0.767600
      6 C24        -0.7200    0.1170    1.4650 c3        1 396      0.143800
      7 C23        -1.6610    1.2140    2.0020 c3        1 396      0.106800
      8 N3         -3.0420    0.7120    2.2410 n4        1 396     -0.651800
      9 C22        -4.0140    1.7830    2.6690 c         1 396      0.577700
     10 O4         -3.5650    2.9260    2.6910 o         1 396     -0.458100
     11 C20        -5.3710    1.3750    3.0260 ca        1 396     -0.208600
     12 C18        -6.1640    2.4020    3.5910 ca        1 396     -0.061000
     13 C19        -5.9240    0.0870    2.8410 ca        1 396      0.148100
     14 O3         -5.1300   -0.8870    2.2760 oh        1 396     -0.556100
     15 C17        -7.2450   -0.2110    3.2100 ca        1 396     -0.153000
     16 C15        -8.0180    0.7880    3.7710 cp        1 396      0.030000
     17 C16        -7.4720    2.1220    3.9620 ca        1 396     -0.027200
     18 N2         -8.4630    2.9640    4.5010 na        1 396     -0.069300
     19 C21        -8.2280    4.2680    5.0350 c3        1 396      0.022600
     20 C14        -9.6150    2.1880    4.7280 ca        1 396      0.033800
     21 C1        -10.8430    2.5630    5.2750 ca        1 396     -0.136000
     22 C13        -9.3790    0.8280    4.2580 cp        1 396     -0.058000
     23 C4        -10.4070   -0.0760    4.3620 ca        1 396     -0.066600
     24 C5        -10.4970   -1.5290    3.9840 c         1 396      0.730100
     25 O1         -9.6230   -2.2390    3.4720 o         1 396     -0.599500
     26 N1        -11.7930   -1.9500    4.3250 n         1 396     -0.613500
     27 C6        -12.5530   -0.8890    4.8960 c         1 396      0.725100
     28 O2        -13.7160   -1.0150    5.2710 o         1 396     -0.528500
     29 C3        -11.6550    0.3170    4.9170 ca        1 396     -0.149600
     30 C2        -11.8800    1.6140    5.3750 cp        1 396      0.096000
     31 C7        -13.1600    2.0330    5.9530 cp        1 396     -0.077000
     32 C12       -14.2210    2.3810    5.1060 ca        1 396     -0.090000
     33 C11       -15.4420    2.7920    5.6370 ca        1 396     -0.122000
     34 C10       -15.6180    2.8560    7.0190 ca        1 396     -0.098000
     35 C9        -14.5730    2.5130    7.8750 ca        1 396     -0.120000
     36 C8        -13.3450    2.1050    7.3440 ca        1 396      0.040400
     37 CL5       -12.0870    1.6900    8.4100 cl        1 396     -0.087400
     38 H26        -0.0720   -2.1170    0.5260 h1        1 396      0.050200
     39 H26A       -1.2830   -2.9620    1.5870 h1        1 396      0.050200
     40 H27         0.4770   -4.0270    2.6480 hc        1 396      0.064450
     41 H27A        1.6810   -3.0760    1.6970 hc        1 396      0.064450
     42 H29         2.1080   -1.7380    3.5510 hc        1 396      0.064450
     43 H29A        0.9340   -2.7130    4.5160 hc        1 396      0.064450
     44 H25         0.5860    0.0140    3.6000 h1        1 396      0.050200
     45 H25A       -0.6650   -1.0470    4.3830 h1        1 396      0.050200
     46 H24        -1.0400   -0.1520    0.4180 h1        1 396      0.071200
     47 H24A        0.3000    0.5990    1.3950 h1        1 396      0.071200
     48 H23        -1.7130    2.0560    1.2550 hx        1 396      0.108200
     49 H23A       -1.2740    1.6260    2.9770 hx        1 396      0.108200
     50 HN3        -3.4040    0.2660    1.3860 hn        1 396      0.473800
     51 H18        -5.7310    3.4090    3.7240 ha        1 396      0.174000
     52 HO3        -5.6460   -1.7070    2.1980 ho        1 396      0.472000
     53 H17        -7.6670   -1.2220    3.0590 ha        1 396      0.200000
     54 H21        -7.4910    4.8090    4.3830 h1        1 396      0.063700
     55 H21A       -9.1950    4.8400    5.0500 h1        1 396      0.063700
     56 H21B       -7.8210    4.2100    6.0820 h1        1 396      0.063700
     57 H1        -11.0140    3.5880    5.6370 ha        1 396      0.166000
     58 HN1       -12.1350   -2.8700    4.1970 hn        1 396      0.359500
     59 H12       -14.0880    2.3220    4.0150 ha        1 396      0.142000
     60 H11       -16.2700    3.0580    4.9620 ha        1 396      0.148000
     61 H10       -16.5850    3.1750    7.4390 ha        1 396      0.149000
     62 H9        -14.7140    2.5590    8.9660 ha        1 396      0.158000
     63 H32        -3.0280   -0.0240    2.9640 hn        1 396      0.473800
@<TRIPOS>BOND
     1    1    2 1   
     2    1    5 1   
     3    1   38 1   
     4    1   39 1   
     5    2    3 1   
     6    2   40 1   
     7    2   41 1   
     8    3    4 1   
     9    3   42 1   
    10    3   43 1   
    11    4    5 1   
    12    4   44 1   
    13    4   45 1   
    14    5    6 1   
    15    6    7 1   
    16    6   46 1   
    17    6   47 1   
    18    7    8 1   
    19    7   48 1   
    20    7   49 1   
    21    8    9 1   
    22    8   50 1   
    23    8   63 1   
    24    9   10 2   
    25    9   11 1   
    26   11   12 ar  
    27   11   13 ar  
    28   12   17 ar  
    29   12   51 1   
    30   13   14 1   
    31   13   15 ar  
    32   14   52 1   
    33   15   16 ar  
    34   15   53 1   
    35   16   17 ar  
    36   16   22 1   
    37   17   18 1   
    38   18   19 1   
    39   18   20 1   
    40   19   54 1   
    41   19   55 1   
    42   19   56 1   
    43   20   21 ar  
    44   20   22 ar  
    45   21   30 ar  
    46   21   57 1   
    47   22   23 ar  
    48   23   24 1   
    49   23   29 ar  
    50   24   25 2   
    51   24   26 1   
    52   26   27 1   
    53   26   58 1   
    54   27   28 2   
    55   27   29 1   
    56   29   30 ar  
    57   30   31 1   
    58   31   32 ar  
    59   31   36 ar  
    60   32   33 ar  
    61   32   59 1   
    62   33   34 ar  
    63   33   60 1   
    64   34   35 ar  
    65   34   61 1   
    66   35   36 ar  
    67   35   62 1   
    68   36   37 1   
@<TRIPOS>SUBSTRUCTURE
     1 396         1 TEMP              0 ****  ****    0 ROOT
