@<TRIPOS>MOLECULE
396
   63    68     1     0     0
SMALL
bcc


@<TRIPOS>ATOM
      1 C26         0.0670   -2.7460    2.1090 c3        1 396      0.156800
      2 C27         1.5880   -2.7100    2.3250 c3        1 396     -0.094900
      3 C29         1.8860   -1.4030    3.0490 c3        1 396     -0.094900
      4 C25         0.5320   -0.7090    3.2570 c3        1 396      0.156800
      5 N4         -0.5290   -1.5190    2.6490 n3        1 396     -0.731600
      6 C24        -1.3730   -0.8060    1.7160 c3        1 396      0.162800
      7 C23        -2.4000    0.0520    2.4950 c3        1 396      0.097800
      8 N3         -3.3480    0.7470    1.5740 ny        1 396     -0.664800
      9 C22        -4.2040    1.7400    2.3310 c         1 396      0.586700
     10 O4         -3.6760    2.8450    2.4450 o         1 396     -0.459100
     11 C20        -5.5260    1.3460    2.8010 ca        1 396     -0.205600
     12 C18        -6.3250    2.4240    3.2560 ca        1 396     -0.061000
     13 C19        -6.0390    0.0300    2.8490 ca        1 396      0.153100
     14 O3         -5.2340   -1.0000    2.4160 oh        1 396     -0.554100
     15 C17        -7.3300   -0.2440    3.3300 ca        1 396     -0.156000
     16 C15        -8.1110    0.8060    3.7700 cp        1 396      0.034000
     17 C16        -7.6030    2.1680    3.7320 ca        1 396     -0.028200
     18 N2         -8.5970    3.0570    4.1860 na        1 396     -0.067300
     19 C21        -8.3660    4.4190    4.5510 c3        1 396      0.020600
     20 C14        -9.7070    2.2900    4.5920 ca        1 396      0.032800
     21 C1        -10.9190    2.7080    5.1430 ca        1 396     -0.135000
     22 C13        -9.4480    0.8820    4.3160 cp        1 396     -0.059000
     23 C4        -10.4380   -0.0240    4.6060 ca        1 396     -0.066600
     24 C5        -10.4960   -1.5190    4.4500 c         1 396      0.730100
     25 O1         -9.6240   -2.2720    4.0020 o         1 396     -0.599500
     26 N1        -11.7580   -1.9190    4.9180 ns        1 396     -0.612500
     27 C6        -12.5260   -0.8060    5.3680 c         1 396      0.725100
     28 O2        -13.6640   -0.9070    5.8190 o         1 396     -0.527500
     29 C3        -11.6710    0.4130    5.1630 ca        1 396     -0.149600
     30 C2        -11.9170    1.7570    5.4360 cp        1 396      0.097000
     31 C7        -13.1810    2.2240    6.0160 cp        1 396     -0.078000
     32 C12       -14.2940    2.4120    5.1850 ca        1 396     -0.090000
     33 C11       -15.5010    2.8630    5.7150 ca        1 396     -0.122000
     34 C10       -15.6100    3.1290    7.0800 ca        1 396     -0.098000
     35 C9        -14.5120    2.9470    7.9190 ca        1 396     -0.119000
     36 C8        -13.2990    2.4970    7.3880 ca        1 396      0.040400
     37 Cl5       -11.9750    2.2810    8.4340 cl        1 396     -0.087400
     38 H26        -0.1660   -2.8930    1.0200 h1        1 396      0.050950
     39 H26A       -0.3900   -3.6010    2.6800 h1        1 396      0.050950
     40 H27         1.9120   -3.5890    2.9340 hc        1 396      0.062450
     41 H27A        2.1240   -2.7590    1.3460 hc        1 396      0.062450
     42 H29         2.5690   -0.7560    2.4450 hc        1 396      0.062450
     43 H29A        2.3790   -1.5920    4.0340 hc        1 396      0.062450
     44 H25         0.5600    0.3350    2.8400 h1        1 396      0.050950
     45 H25A        0.2960   -0.6370    4.3540 h1        1 396      0.050950
     46 H24        -1.9310   -1.5560    1.0870 h1        1 396      0.046700
     47 H24A       -0.7940   -0.1290    1.0210 h1        1 396      0.046700
     48 H23        -3.0110   -0.6020    3.1840 hx        1 396      0.118200
     49 H23A       -1.8680    0.8380    3.1020 hx        1 396      0.118200
     50 HN3        -2.8100    1.2550    0.8620 hn        1 396      0.460300
     51 H18        -5.9180    3.4500    3.2260 ha        1 396      0.174000
     52 HO3        -5.7090   -1.8410    2.5350 ho        1 396      0.471000
     53 H17        -7.7180   -1.2800    3.3630 ha        1 396      0.201000
     54 H21        -7.6720    4.8890    3.8040 h1        1 396      0.064033
     55 H21A       -7.9100    4.4950    5.5760 h1        1 396      0.064033
     56 H21B       -9.3440    4.9720    4.5440 h1        1 396      0.064033
     57 H1        -11.1090    3.7720    5.3590 ha        1 396      0.167000
     58 HN1       -12.0730   -2.8570    4.9460 hn        1 396      0.359500
     59 H12       -14.2140    2.1930    4.1090 ha        1 396      0.142000
     60 H11       -16.3700    3.0030    5.0540 ha        1 396      0.148000
     61 H10       -16.5650    3.4800    7.5000 ha        1 396      0.150000
     62 H9        -14.6000    3.1510    8.9980 ha        1 396      0.158000
     63 H32        -3.9430    0.0490    1.1100 hn        1 396      0.460300
@<TRIPOS>BOND
     1    1    2 1   
     2    1    5 1   
     3    1   38 1   
     4    1   39 1   
     5    2    3 1   
     6    2   40 1   
     7    2   41 1   
     8    3    4 1   
     9    3   42 1   
    10    3   43 1   
    11    4    5 1   
    12    4   44 1   
    13    4   45 1   
    14    5    6 1   
    15    6    7 1   
    16    6   46 1   
    17    6   47 1   
    18    7    8 1   
    19    7   48 1   
    20    7   49 1   
    21    8    9 1   
    22    8   50 1   
    23    8   63 1   
    24    9   10 2   
    25    9   11 1   
    26   11   12 ar  
    27   11   13 ar  
    28   12   17 ar  
    29   12   51 1   
    30   13   14 1   
    31   13   15 ar  
    32   14   52 1   
    33   15   16 ar  
    34   15   53 1   
    35   16   17 ar  
    36   16   22 1   
    37   17   18 1   
    38   18   19 1   
    39   18   20 1   
    40   19   54 1   
    41   19   55 1   
    42   19   56 1   
    43   20   21 ar  
    44   20   22 ar  
    45   21   30 ar  
    46   21   57 1   
    47   22   23 ar  
    48   23   24 1   
    49   23   29 ar  
    50   24   25 2   
    51   24   26 1   
    52   26   27 1   
    53   26   58 1   
    54   27   28 2   
    55   27   29 1   
    56   29   30 ar  
    57   30   31 1   
    58   31   32 ar  
    59   31   36 ar  
    60   32   33 ar  
    61   32   59 1   
    62   33   34 ar  
    63   33   60 1   
    64   34   35 ar  
    65   34   61 1   
    66   35   36 ar  
    67   35   62 1   
    68   36   37 1   
@<TRIPOS>SUBSTRUCTURE
     1 396         1 TEMP              0 ****  ****    0 ROOT
