@<TRIPOS>MOLECULE
397
   27    20     1     0     0
SMALL
bcc


@<TRIPOS>ATOM
      1 C1         -3.3980    0.0110   -2.6440 c1        1 397     -0.178000
      2 C2         -2.0110    0.0270   -2.6420 c1        1 397     -0.100000
      3 C3         -1.3100    0.0180   -1.4240 c1        1 397     -0.034500
      4 C4         -1.9990   -0.0070   -0.2360 c1        1 397     -0.034500
      5 C5         -3.4030   -0.0230   -0.2390 c1        1 397     -0.100000
      6 C6         -4.0950   -0.0130   -1.4420 c1        1 397      0.077500
      7 O10         0.0480    0.0290   -1.1330 o         1 397     -0.115000
      8 C11         0.1910    0.0110    0.2330 c2        1 397      0.058000
      9 C12        -1.0730   -0.0110    0.7940 c1        1 397     -0.189000
     10 C13         1.4910    0.0040    0.7090 c1        1 397     -0.070000
     11 C14         2.1390    1.2010    0.9680 c1        1 397     -0.137500
     12 C15         3.4230    1.1950    1.4910 c1        1 397     -0.137500
     13 C16         4.0580   -0.0090    1.7540 c1        1 397      0.077500
     14 C17         3.4090   -1.2060    1.4950 c1        1 397     -0.178000
     15 C18         2.1260   -1.1990    0.9720 c1        1 397     -0.072000
     16 O23        -5.4670    0.2920   -1.4440 oh        1 397     -0.250000
     17 O24         5.3400   -0.0150    2.3330 oh        1 397     -0.250000
     18 H1         -3.8850    0.0180   -3.4900 ha        1 397      0.146000
     19 H2         -1.5210    0.0440   -3.4860 ha        1 397      0.154500
     20 H5         -3.8930   -0.0400    0.6050 ha        1 397      0.154500
     21 H12        -1.2760   -0.0270    1.7490 DU        1 397      0.165000
     22 H14         1.6920    2.0490    0.7830 ha        1 397      0.145000
     23 H15         3.8800    2.0380    1.6740 ha        1 397      0.145000
     24 H17         3.8560   -2.0530    1.6800 ha        1 397      0.146000
     25 H18         1.6690   -2.0420    0.7890 ha        1 397      0.140000
     26 H23        -5.9370   -0.4540   -1.5570 ho        1 397      0.219000
     27 H24         5.9470    0.1630    1.7080 ho        1 397      0.219000
@<TRIPOS>BOND
     1    1    6 1   
     2    1   18 1   
     3    2    3 1   
     4    2   19 1   
     5    4    5 1   
     6    5   20 1   
     7    6   16 1   
     8    7    8 1   
     9    8    9 1   
    10    8   10 1   
    11   10   15 1   
    12   11   12 1   
    13   11   22 1   
    14   12   23 1   
    15   13   14 1   
    16   13   17 1   
    17   14   24 1   
    18   15   25 1   
    19   16   26 1   
    20   17   27 1   
@<TRIPOS>SUBSTRUCTURE
     1 397         1 TEMP              0 ****  ****    0 ROOT
