@<TRIPOS>MOLECULE
397
   27    29     1     0     0
SMALL
bcc


@<TRIPOS>ATOM
      1 C1          1.1600   -0.1050   -4.1220 ca        1 397     -0.138000
      2 C2          1.6970   -0.0670   -2.8410 ca        1 397     -0.088000
      3 C3          0.7950   -0.0440   -1.7810 ca        1 397      0.029100
      4 C4         -0.6230   -0.0590   -1.9580 ca        1 397     -0.062800
      5 C5         -1.1480   -0.0990   -3.2460 ca        1 397     -0.176000
      6 C6         -0.2410   -0.1210   -4.3120 ca        1 397      0.110100
      7 O10         1.1150   -0.0040   -0.4220 os        1 397     -0.200200
      8 C11        -0.1250    0.0050    0.2610 cc        1 397      0.113900
      9 C12        -1.1850   -0.0270   -0.6240 cd        1 397     -0.181200
     10 C13        -0.0590    0.0450    1.7010 ca        1 397     -0.081800
     11 C14         1.1810    0.0720    2.3650 ca        1 397     -0.065000
     12 C15         1.2420    0.1110    3.7510 ca        1 397     -0.190000
     13 C16         0.0460    0.1220    4.4890 ca        1 397      0.139100
     14 C17        -1.1980    0.0950    3.8420 ca        1 397     -0.190000
     15 C18        -1.2440    0.0570    2.4520 ca        1 397     -0.065000
     16 O23        -0.6560   -0.1600   -5.6270 oh        1 397     -0.499100
     17 O24         0.1700    0.1610    5.8570 oh        1 397     -0.493100
     18 H1          1.8150   -0.1250   -5.0050 ha        1 397      0.155000
     19 H2          2.7810   -0.0540   -2.6700 ha        1 397      0.153000
     20 H5         -2.2320   -0.1110   -3.4190 ha        1 397      0.141000
     21 H12        -2.2450   -0.0280   -0.3860 ha        1 397      0.163000
     22 H14         2.1110    0.0630    1.7730 ha        1 397      0.146000
     23 H15         2.2060    0.1320    4.2790 ha        1 397      0.146500
     24 H17        -2.1290    0.1050    4.4270 ha        1 397      0.146500
     25 H18        -2.2170    0.0360    1.9390 ha        1 397      0.146000
     26 H23        -1.6240   -0.1680   -5.6330 ho        1 397      0.419000
     27 H24        -0.7200    0.1650    6.2400 ho        1 397      0.422000
@<TRIPOS>BOND
     1    1    2 ar  
     2    1    6 ar  
     3    1   18 1   
     4    2    3 ar  
     5    2   19 1   
     6    3    4 ar  
     7    3    7 1   
     8    4    5 ar  
     9    4    9 1   
    10    5    6 ar  
    11    5   20 1   
    12    6   16 1   
    13    7    8 1   
    14    8    9 2   
    15    8   10 1   
    16    9   21 1   
    17   10   11 ar  
    18   10   15 ar  
    19   11   12 ar  
    20   11   22 1   
    21   12   13 ar  
    22   12   23 1   
    23   13   14 ar  
    24   13   17 1   
    25   14   15 ar  
    26   14   24 1   
    27   15   25 1   
    28   16   26 1   
    29   17   27 1   
@<TRIPOS>SUBSTRUCTURE
     1 397         1 TEMP              0 ****  ****    0 ROOT
