@<TRIPOS>MOLECULE
397
   27    29     1     0     0
SMALL
bcc


@<TRIPOS>ATOM
      1 C1          0.1180   -0.0070   -0.0860 ca        1 397     -0.138000
      2 C2          1.5060   -0.0340   -0.0120 ca        1 397     -0.088000
      3 C3          2.0690    0.0170    1.2590 ca        1 397      0.029100
      4 C4          1.2950    0.0940    2.4570 ca        1 397     -0.062800
      5 C5         -0.0940    0.1200    2.3700 ca        1 397     -0.176000
      6 C6         -0.6610    0.0690    1.0910 ca        1 397      0.110100
      7 O10         3.4330    0.0020    1.5620 os        1 397     -0.200200
      8 C11         3.5100    0.0710    2.9730 cc        1 397      0.113900
      9 C12         2.2530    0.1270    3.5430 cd        1 397     -0.181200
     10 C13         4.8370    0.0700    3.5390 ca        1 397     -0.081800
     11 C14         5.9730    0.0040    2.7120 ca        1 397     -0.065000
     12 C15         7.2490    0.0030    3.2590 ca        1 397     -0.190000
     13 C16         7.3950    0.0700    4.6560 ca        1 397      0.139100
     14 C17         6.2720    0.1360    5.4940 ca        1 397     -0.190000
     15 C18         5.0000    0.1360    4.9310 ca        1 397     -0.065000
     16 O23        -2.0260    0.0880    0.8940 oh        1 397     -0.499100
     17 O24         8.6820    0.0650    5.1380 oh        1 397     -0.493100
     18 H1         -0.3940   -0.0440   -1.0580 ha        1 397      0.155000
     19 H2          2.1300   -0.0920   -0.9130 ha        1 397      0.153000
     20 H5         -0.7190    0.1780    3.2700 ha        1 397      0.141000
     21 H12         2.0080    0.1840    4.5990 ha        1 397      0.163000
     22 H14         5.8430   -0.0480    1.6190 ha        1 397      0.146000
     23 H15         8.1430   -0.0480    2.6220 ha        1 397      0.146500
     24 H17         6.3960    0.1870    6.5840 ha        1 397      0.146500
     25 H18         4.1160    0.1880    5.5840 ha        1 397      0.146000
     26 H23        -2.4510    0.1410    1.7620 ho        1 397      0.419000
     27 H24         8.6410    0.1140    6.1050 ho        1 397      0.422000
@<TRIPOS>BOND
     1    1    2 ar  
     2    1    6 ar  
     3    1   18 1   
     4    2    3 ar  
     5    2   19 1   
     6    3    4 ar  
     7    3    7 1   
     8    4    5 ar  
     9    4    9 1   
    10    5    6 ar  
    11    5   20 1   
    12    6   16 1   
    13    7    8 1   
    14    8    9 2   
    15    8   10 1   
    16    9   21 1   
    17   10   11 ar  
    18   10   15 ar  
    19   11   12 ar  
    20   11   22 1   
    21   12   13 ar  
    22   12   23 1   
    23   13   14 ar  
    24   13   17 1   
    25   14   15 ar  
    26   14   24 1   
    27   15   25 1   
    28   16   26 1   
    29   17   27 1   
@<TRIPOS>SUBSTRUCTURE
     1 397         1 TEMP              0 ****  ****    0 ROOT
