@<TRIPOS>MOLECULE
398
   96   100     1     0     0
SMALL
bcc


@<TRIPOS>ATOM
      1 O53         0.8870   -1.6820    0.2850 o         1 398     -0.602100
      2 C42         2.1320   -1.6670    0.1950 c         1 398      0.674700
      3 N43         2.9410   -2.1230    1.2260 n         1 398     -0.447800
      4 C48         4.2930   -2.5910    0.9960 c3        1 398      0.128300
      5 C47         4.5070   -4.0440    1.3120 ca        1 398     -0.112300
      6 C49         5.6670   -4.6680    0.8410 ca        1 398     -0.117000
      7 C50         5.9280   -5.9980    1.1610 ca        1 398     -0.113000
      8 C51         5.0300   -6.7120    1.9570 ca        1 398     -0.112000
      9 C52         3.8710   -6.0970    2.4250 ca        1 398     -0.136000
     10 C46         3.5990   -4.7610    2.1040 ca        1 398     -0.093300
     11 C45         2.3510   -4.1280    2.6080 c3        1 398     -0.051100
     12 C44         2.3430   -2.6070    2.4550 c3        1 398      0.075000
     13 C1          2.7960   -1.0270   -0.9900 ca        1 398     -0.112600
     14 C6          2.4750   -1.3890   -2.3180 ca        1 398      0.072800
     15 N7          1.5110   -2.4060   -2.6020 na        1 398      0.198300
     16 N11         1.4150   -3.5250   -1.8870 nc        1 398     -0.462800
     17 C10         0.3400   -4.2210   -2.3770 cd        1 398      0.221800
     18 C12        -0.1230   -5.4990   -1.8430 c         1 398      0.498600
     19 O22        -0.6420   -6.4140   -2.4630 o         1 398     -0.397100
     20 N13         0.0520   -5.6630   -0.3440 n4        1 398     -0.585200
     21 C18        -0.0970   -7.0960    0.0690 c3        1 398      0.104300
     22 C19         0.4130   -7.3750    1.4760 c3        1 398     -0.104400
     23 C20         0.4140   -8.8720    1.7230 c3        1 398     -0.077900
     24 C21         0.8780   -9.1820    3.1230 c3        1 398     -0.099100
     25 C14        -0.8860   -4.7450    0.3880 c3        1 398      0.104300
     26 C15        -2.3560   -4.9220    0.0350 c3        1 398     -0.104400
     27 C16        -3.1680   -3.8420    0.7250 c3        1 398     -0.077900
     28 C17        -4.6360   -3.9980    0.4180 c3        1 398     -0.099100
     29 C9         -0.2660   -3.4940   -3.4740 cd        1 398     -0.100900
     30 CL23       -1.5770   -3.9380   -4.3770 cl        1 398      0.043600
     31 C8          0.5010   -2.3150   -3.5950 cc        1 398     -0.047600
     32 C24         0.3020   -1.2030   -4.5350 c3        1 398     -0.052800
     33 C5          3.1180   -0.7360   -3.3920 ca        1 398     -0.130000
     34 C4          4.0160    0.2980   -3.1480 ca        1 398     -0.068000
     35 C3          4.3000    0.6820   -1.8350 ca        1 398     -0.167600
     36 C2          3.7090    0.0070   -0.7630 ca        1 398     -0.040000
     37 C25         5.2660    1.7700   -1.5400 c         1 398      0.639700
     38 O26         6.2580    1.6250   -0.8180 o         1 398     -0.499100
     39 N27         5.0500    3.0460   -2.1550 n         1 398     -0.711000
     40 S28         6.3840    3.5450   -4.2140 s4        1 398      1.682300
     41 O29         6.3830    2.2260   -4.5450 o         1 398     -0.437900
     42 O30         5.3800    4.3690   -4.6070 o         1 398     -0.437900
     43 C31         7.6380    4.1460   -3.5580 ca        1 398     -0.647500
     44 C36         8.7560    3.3830   -3.1640 ca        1 398      0.136000
     45 C35         9.8980    3.9660   -2.6040 ca        1 398     -0.107000
     46 C37        11.0230    3.1740   -2.2190 ca        1 398     -0.037000
     47 C38        12.1370    3.7650   -1.6760 ca        1 398      0.011900
     48 I41        13.7320    2.6550   -1.1310 i         1 398     -0.050900
     49 C39        12.1770    5.1720   -1.4950 ca        1 398      0.002000
     50 C40        11.1050    5.9620   -1.8560 ca        1 398     -0.151000
     51 C34         9.9470    5.3810   -2.4170 ca        1 398      0.081000
     52 C33         8.8160    6.1610   -2.8070 ca        1 398     -0.103000
     53 C32         7.7150    5.5720   -3.3500 ca        1 398     -0.049000
     54 H481        4.9760   -1.9860    1.6660 h1        1 398      0.068200
     55 H482        4.5940   -2.3960   -0.0720 h1        1 398      0.068200
     56 H441        1.2840   -2.2300    2.5300 h1        1 398      0.080700
     57 H442        2.9390   -2.1560    3.3010 h1        1 398      0.080700
     58 H49         6.3800   -4.1020    0.2230 ha        1 398      0.138000
     59 H50         6.8460   -6.4830    0.7950 ha        1 398      0.152000
     60 H51         5.2440   -7.7590    2.2240 ha        1 398      0.151000
     61 H52         3.1760   -6.6560    3.0710 ha        1 398      0.138000
     62 H451        1.4730   -4.5680    2.0570 hc        1 398      0.048700
     63 H452        2.2110   -4.3690    3.6970 hc        1 398      0.048700
     64 H2          3.9670    0.2900    0.2740 ha        1 398      0.179000
     65 H5          2.9190   -1.0420   -4.4340 ha        1 398      0.174000
     66 H181        0.4800   -7.7220   -0.6740 hx        1 398      0.110700
     67 H182       -1.1870   -7.3730   -0.0180 hx        1 398      0.110700
     68 H141       -0.7380   -4.9340    1.4900 hx        1 398      0.110700
     69 H142       -0.5610   -3.6830    0.1630 hx        1 398      0.110700
     70 H191       -0.2420   -6.8750    2.2380 hc        1 398      0.063700
     71 H192        1.4560   -6.9760    1.6090 hc        1 398      0.063700
     72 H201       -0.6200   -9.2810    1.5680 hc        1 398      0.055200
     73 H202        1.0880   -9.3770    0.9800 hc        1 398      0.055200
     74 H211        0.1860   -8.7390    3.8790 hc        1 398      0.049533
     75 H212        0.9060  -10.2890    3.2780 hc        1 398      0.049533
     76 H213        1.9040   -8.7760    3.3000 hc        1 398      0.049533
     77 H151       -2.7240   -5.9300    0.3640 hc        1 398      0.063700
     78 H152       -2.5080   -4.8520   -1.0750 hc        1 398      0.063700
     79 H161       -3.0060   -3.9010    1.8340 hc        1 398      0.055200
     80 H162       -2.8160   -2.8310    0.3890 hc        1 398      0.055200
     81 H171       -5.0140   -4.9880    0.7720 hc        1 398      0.049533
     82 H172       -4.8220   -3.9210   -0.6800 hc        1 398      0.049533
     83 H173       -5.2190   -3.1950    0.9310 hc        1 398      0.049533
     84 H241        0.6380   -0.2260   -4.1050 hc        1 398      0.079700
     85 H242        0.8640   -1.3950   -5.4860 hc        1 398      0.079700
     86 H243       -0.7890   -1.1250   -4.7840 hc        1 398      0.079700
     87 H4          4.5230    0.7850   -3.9990 ha        1 398      0.168000
     88 H27         4.0970    3.1750   -2.4490 hn        1 398      0.307000
     89 H36         8.7330    2.2830   -3.3070 ha        1 398      0.169000
     90 H32         6.8500    6.1900   -3.6580 ha        1 398      0.171000
     91 H37        10.9700    2.0810   -2.3690 ha        1 398      0.166000
     92 H39        13.0810    5.6390   -1.0600 ha        1 398      0.183000
     93 H40        11.1440    7.0560   -1.7130 ha        1 398      0.175000
     94 H33         8.8570    7.2550   -2.6630 ha        1 398      0.181000
     95 H131        1.0100   -5.3700   -0.1000 hn        1 398      0.463800
     96 H272        5.3350    3.7970   -1.5470 hn        1 398      0.307000
@<TRIPOS>BOND
     1    1    2 2   
     2    2    3 1   
     3    2   13 1   
     4    3    4 1   
     5    3   12 1   
     6    4    5 1   
     7    4   54 1   
     8    4   55 1   
     9    5    6 ar  
    10    5   10 ar  
    11    6    7 ar  
    12    6   58 1   
    13    7    8 ar  
    14    7   59 1   
    15    8    9 ar  
    16    8   60 1   
    17    9   10 ar  
    18    9   61 1   
    19   10   11 1   
    20   11   12 1   
    21   11   62 1   
    22   11   63 1   
    23   12   56 1   
    24   12   57 1   
    25   13   14 ar  
    26   13   36 ar  
    27   14   15 1   
    28   14   33 ar  
    29   15   16 1   
    30   15   31 1   
    31   16   17 2   
    32   17   18 1   
    33   17   29 1   
    34   18   19 2   
    35   18   20 1   
    36   20   21 1   
    37   20   25 1   
    38   20   95 1   
    39   21   22 1   
    40   21   66 1   
    41   21   67 1   
    42   22   23 1   
    43   22   70 1   
    44   22   71 1   
    45   23   24 1   
    46   23   72 1   
    47   23   73 1   
    48   24   74 1   
    49   24   75 1   
    50   24   76 1   
    51   25   26 1   
    52   25   68 1   
    53   25   69 1   
    54   26   27 1   
    55   26   77 1   
    56   26   78 1   
    57   27   28 1   
    58   27   79 1   
    59   27   80 1   
    60   28   81 1   
    61   28   82 1   
    62   28   83 1   
    63   29   30 1   
    64   29   31 2   
    65   31   32 1   
    66   32   84 1   
    67   32   85 1   
    68   32   86 1   
    69   33   34 ar  
    70   33   65 1   
    71   34   35 ar  
    72   34   87 1   
    73   35   36 ar  
    74   35   37 1   
    75   36   64 1   
    76   37   38 2   
    77   37   39 1   
    78   39   88 1   
    79   39   96 1   
    80   40   41 1   
    81   40   42 1   
    82   40   43 1   
    83   43   44 ar  
    84   43   53 ar  
    85   44   45 ar  
    86   44   89 1   
    87   45   46 ar  
    88   45   51 ar  
    89   46   47 ar  
    90   46   91 1   
    91   47   48 1   
    92   47   49 ar  
    93   49   50 ar  
    94   49   92 1   
    95   50   51 ar  
    96   50   93 1   
    97   51   52 ar  
    98   52   53 ar  
    99   52   94 1   
   100   53   90 1   
@<TRIPOS>SUBSTRUCTURE
     1 398         1 TEMP              0 ****  ****    0 ROOT
