@<TRIPOS>MOLECULE
398
   96   100     1     0     0
SMALL
bcc


@<TRIPOS>ATOM
      1 O53         0.9180   -1.6980    0.3580 o         1 398     -0.602100
      2 C42         2.1600   -1.6900    0.2360 c         1 398      0.674700
      3 N43         2.9910   -2.1860    1.2310 n         1 398     -0.447800
      4 C48         4.3320   -2.6580    0.9520 c3        1 398      0.128300
      5 C47         4.5400   -4.1220    1.2160 ca        1 398     -0.112300
      6 C49         5.6830   -4.7390    0.6960 ca        1 398     -0.117000
      7 C50         5.9390   -6.0810    0.9670 ca        1 398     -0.113000
      8 C51         5.0550   -6.8130    1.7620 ca        1 398     -0.112000
      9 C52         3.9140   -6.2040    2.2790 ca        1 398     -0.136000
     10 C46         3.6460   -4.8560    2.0080 ca        1 398     -0.093300
     11 C45         2.4170   -4.2290    2.5630 c3        1 398     -0.051100
     12 C44         2.4190   -2.7040    2.4590 c3        1 398      0.075000
     13 C1          2.7990   -1.0180   -0.9450 ca        1 398     -0.112600
     14 C6          2.4410   -1.3340   -2.2750 ca        1 398      0.072800
     15 N7          1.4610   -2.3340   -2.5660 na        1 398      0.198300
     16 N11         1.3730   -3.4740   -1.8850 nc        1 398     -0.462800
     17 C10         0.2800   -4.1450   -2.3690 cd        1 398      0.221800
     18 C12        -0.1810   -5.4360   -1.8650 c         1 398      0.498600
     19 O22        -0.7240   -6.3260   -2.5010 o         1 398     -0.397100
     20 N13         0.0300   -5.6500   -0.3770 n4        1 398     -0.585200
     21 C18        -0.1220   -7.0940   -0.0070 c3        1 398      0.104300
     22 C19         0.4210   -7.4220    1.3780 c3        1 398     -0.104400
     23 C20         0.4160   -8.9270    1.5760 c3        1 398     -0.077900
     24 C21         0.9120   -9.2850    2.9530 c3        1 398     -0.099100
     25 C14        -0.8800   -4.7480    0.4070 c3        1 398      0.104300
     26 C15        -2.3610   -4.9020    0.0870 c3        1 398     -0.104400
     27 C16        -3.1460   -3.8380    0.8320 c3        1 398     -0.077900
     28 C17        -4.6220   -3.9720    0.5580 c3        1 398     -0.099100
     29 C9         -0.3470   -3.3770   -3.4260 cd        1 398     -0.100900
     30 CL23       -1.6850   -3.7810   -4.3090 cl        1 398      0.043600
     31 C8          0.4270   -2.2020   -3.5290 cc        1 398     -0.047600
     32 C24         0.2140   -1.0580   -4.4280 c3        1 398     -0.052800
     33 C5          3.0620   -0.6520   -3.3440 ca        1 398     -0.130000
     34 C4          3.9770    0.3650   -3.0900 ca        1 398     -0.068000
     35 C3          4.2980    0.7040   -1.7730 ca        1 398     -0.167600
     36 C2          3.7290    0.0000   -0.7090 ca        1 398     -0.040000
     37 C25         5.2810    1.7740   -1.4680 c         1 398      0.639700
     38 O26         6.2930    1.5960   -0.7810 o         1 398     -0.499100
     39 N27         5.0600    3.0720   -2.0340 n         1 398     -0.711000
     40 S28         6.3390    3.6300   -4.1120 s4        1 398      1.682300
     41 O29         6.3170    2.3230   -4.4870 o         1 398     -0.437900
     42 O30         5.3310    4.4740   -4.4490 o         1 398     -0.437900
     43 C31         7.6150    4.1990   -3.4720 ca        1 398     -0.647500
     44 C36         8.7380    3.4150   -3.1370 ca        1 398      0.136000
     45 C35         9.9000    3.9710   -2.5910 ca        1 398     -0.107000
     46 C37        11.0290    3.1580   -2.2640 ca        1 398     -0.037000
     47 C38        12.1630    3.7230   -1.7340 ca        1 398      0.011900
     48 I41        13.7630    2.5840   -1.2720 i         1 398     -0.050900
     49 C39        12.2200    5.1220   -1.5070 ca        1 398      0.002000
     50 C40        11.1440    5.9320   -1.8100 ca        1 398     -0.151000
     51 C34         9.9660    5.3790   -2.3570 ca        1 398      0.081000
     52 C33         8.8310    6.1790   -2.6880 ca        1 398     -0.103000
     53 C32         7.7100    5.6170   -3.2190 ca        1 398     -0.049000
     54 H481        4.6080   -2.4310   -0.1170 h1        1 398      0.068200
     55 H482        5.0380   -2.0800    1.6230 h1        1 398      0.068200
     56 H441        3.0410   -2.2850    3.3040 h1        1 398      0.080700
     57 H442        1.3660   -2.3200    2.5730 h1        1 398      0.080700
     58 H49         6.3860   -4.1600    0.0790 ha        1 398      0.138000
     59 H50         6.8430   -6.5620    0.5630 ha        1 398      0.152000
     60 H51         5.2660   -7.8700    1.9900 ha        1 398      0.151000
     61 H52         3.2300   -6.7780    2.9230 ha        1 398      0.138000
     62 H451        2.3020   -4.5030    3.6470 hc        1 398      0.048700
     63 H452        1.5220   -4.6440    2.0210 hc        1 398      0.048700
     64 H2          4.0150    0.2480    0.3300 ha        1 398      0.179000
     65 H5          2.8340   -0.9230   -4.3900 ha        1 398      0.174000
     66 H181       -1.2150   -7.3590   -0.0750 hx        1 398      0.110700
     67 H182        0.4310   -7.7000   -0.7830 hx        1 398      0.110700
     68 H141       -0.5530   -3.6820    0.2080 hx        1 398      0.110700
     69 H142       -0.7060   -4.9730    1.4990 hx        1 398      0.110700
     70 H191        1.4700   -7.0350    1.4970 hc        1 398      0.063700
     71 H192       -0.2110   -6.9420    2.1710 hc        1 398      0.063700
     72 H201       -0.6250   -9.3220    1.4340 hc        1 398      0.055200
     73 H202        1.0670   -9.4120    0.8010 hc        1 398      0.055200
     74 H211        0.9340  -10.3960    3.0720 hc        1 398      0.049533
     75 H212        0.2430   -8.8610    3.7400 hc        1 398      0.049533
     76 H213        1.9450   -8.8930    3.1180 hc        1 398      0.049533
     77 H151       -2.7290   -5.9170    0.3930 hc        1 398      0.063700
     78 H152       -2.5400   -4.7960   -1.0160 hc        1 398      0.063700
     79 H161       -2.7930   -2.8200    0.5180 hc        1 398      0.055200
     80 H162       -2.9560   -3.9340    1.9340 hc        1 398      0.055200
     81 H171       -5.1850   -3.1820    1.1110 hc        1 398      0.049533
     82 H172       -4.8360   -3.8600   -0.5320 hc        1 398      0.049533
     83 H173       -4.9990   -4.9700    0.8900 hc        1 398      0.049533
     84 H241       -0.8820   -0.9630   -4.6460 hc        1 398      0.079700
     85 H242        0.5700   -0.0990   -3.9760 hc        1 398      0.079700
     86 H243        0.7500   -1.2240   -5.3980 hc        1 398      0.079700
     87 H4          4.4660    0.8750   -3.9380 ha        1 398      0.168000
     88 H27         5.3690    3.7990   -1.4090 hn        1 398      0.307000
     89 H36         8.7020    2.3210   -3.3150 ha        1 398      0.169000
     90 H32         6.8410    6.2510   -3.4810 ha        1 398      0.171000
     91 H37        10.9630    2.0720   -2.4500 ha        1 398      0.166000
     92 H39        13.1390    5.5680   -1.0820 ha        1 398      0.183000
     93 H40        11.1960    7.0200   -1.6320 ha        1 398      0.175000
     94 H33         8.8840    7.2680   -2.5090 ha        1 398      0.181000
     95 H131        0.9970   -5.3720   -0.1480 hn        1 398      0.463800
     96 H272        4.1000    3.2180   -2.2960 hn        1 398      0.307000
@<TRIPOS>BOND
     1    1    2 2   
     2    2    3 1   
     3    2   13 1   
     4    3    4 1   
     5    3   12 1   
     6    4    5 1   
     7    4   54 1   
     8    4   55 1   
     9    5    6 ar  
    10    5   10 ar  
    11    6    7 ar  
    12    6   58 1   
    13    7    8 ar  
    14    7   59 1   
    15    8    9 ar  
    16    8   60 1   
    17    9   10 ar  
    18    9   61 1   
    19   10   11 1   
    20   11   12 1   
    21   11   62 1   
    22   11   63 1   
    23   12   56 1   
    24   12   57 1   
    25   13   14 ar  
    26   13   36 ar  
    27   14   15 1   
    28   14   33 ar  
    29   15   16 1   
    30   15   31 1   
    31   16   17 2   
    32   17   18 1   
    33   17   29 1   
    34   18   19 2   
    35   18   20 1   
    36   20   21 1   
    37   20   25 1   
    38   20   95 1   
    39   21   22 1   
    40   21   66 1   
    41   21   67 1   
    42   22   23 1   
    43   22   70 1   
    44   22   71 1   
    45   23   24 1   
    46   23   72 1   
    47   23   73 1   
    48   24   74 1   
    49   24   75 1   
    50   24   76 1   
    51   25   26 1   
    52   25   68 1   
    53   25   69 1   
    54   26   27 1   
    55   26   77 1   
    56   26   78 1   
    57   27   28 1   
    58   27   79 1   
    59   27   80 1   
    60   28   81 1   
    61   28   82 1   
    62   28   83 1   
    63   29   30 1   
    64   29   31 2   
    65   31   32 1   
    66   32   84 1   
    67   32   85 1   
    68   32   86 1   
    69   33   34 ar  
    70   33   65 1   
    71   34   35 ar  
    72   34   87 1   
    73   35   36 ar  
    74   35   37 1   
    75   36   64 1   
    76   37   38 2   
    77   37   39 1   
    78   39   88 1   
    79   39   96 1   
    80   40   41 1   
    81   40   42 1   
    82   40   43 1   
    83   43   44 ar  
    84   43   53 ar  
    85   44   45 ar  
    86   44   89 1   
    87   45   46 ar  
    88   45   51 ar  
    89   46   47 ar  
    90   46   91 1   
    91   47   48 1   
    92   47   49 ar  
    93   49   50 ar  
    94   49   92 1   
    95   50   51 ar  
    96   50   93 1   
    97   51   52 ar  
    98   52   53 ar  
    99   52   94 1   
   100   53   90 1   
@<TRIPOS>SUBSTRUCTURE
     1 398         1 TEMP              0 ****  ****    0 ROOT
