@<TRIPOS>MOLECULE
398
   94    99     1     0     0
SMALL
bcc


@<TRIPOS>ATOM
      1 O53        -3.3500    2.5280    2.3370 o         1 398     -0.574100
      2 C42        -2.4430    1.7460    1.9950 c         1 398      0.673700
      3 N43        -2.0930    0.6510    2.7760 n         1 398     -0.440800
      4 C48        -1.2120   -0.3860    2.2870 c3        1 398      0.136300
      5 C47        -1.7530   -1.7860    2.3540 ca        1 398     -0.102300
      6 C49        -0.9940   -2.8170    1.7880 ca        1 398     -0.125000
      7 C50        -1.4450   -4.1320    1.8440 ca        1 398     -0.135000
      8 C51        -2.6600   -4.4270    2.4650 ca        1 398     -0.127000
      9 C52        -3.4190   -3.4050    3.0290 ca        1 398     -0.126000
     10 C46        -2.9730   -2.0790    2.9800 ca        1 398     -0.051300
     11 C45        -3.7990   -0.9940    3.5680 c3        1 398     -0.073100
     12 C44        -2.9690    0.2560    3.8630 c3        1 398      0.083000
     13 C1         -1.6330    2.0590    0.7720 ca        1 398     -0.121600
     14 C6         -2.2290    2.0220   -0.5080 ca        1 398      0.080800
     15 N7         -3.5570    1.5380   -0.6790 na        1 398      0.146300
     16 N11        -3.9970    0.4200   -0.0680 nc        1 398     -0.456800
     17 C10        -5.3110    0.2890   -0.3820 cd        1 398      0.301800
     18 C12        -6.1710   -0.7990    0.1640 c         1 398      0.606600
     19 O22        -6.5230   -0.7730    1.3590 o         1 398     -0.585100
     20 N13        -6.5660   -1.8120   -0.6920 n         1 398     -0.462800
     21 C18        -6.0700   -1.9280   -2.0410 c3        1 398      0.093000
     22 C19        -4.8110   -2.7850   -2.1910 c3        1 398     -0.102400
     23 C20        -4.4080   -2.8610   -3.6490 c3        1 398     -0.078400
     24 C21        -3.1690   -3.6980   -3.8320 c3        1 398     -0.092100
     25 C14        -7.4100   -2.8800   -0.1990 c3        1 398      0.093000
     26 C15        -8.8770   -2.7660   -0.6170 c3        1 398     -0.102400
     27 C16        -9.6610   -3.9390   -0.0670 c3        1 398     -0.078400
     28 C17       -11.1130   -3.8610   -0.4610 c3        1 398     -0.092100
     29 C9         -5.7330    1.3970   -1.2230 cd        1 398     -0.152900
     30 CL23       -7.2530    1.6670   -1.8360 cl        1 398     -0.021400
     31 C8         -4.5860    2.1950   -1.3930 cc        1 398     -0.050600
     32 C24        -4.4440    3.4540   -2.1380 c3        1 398     -0.042800
     33 C5         -1.4900    2.4530   -1.6290 ca        1 398     -0.148000
     34 C4         -0.1790    2.8920   -1.4740 ca        1 398     -0.079000
     35 C3          0.4170    2.9030   -0.2090 ca        1 398     -0.153600
     36 C2         -0.3160    2.4990    0.9110 ca        1 398     -0.042000
     37 C25         1.8150    3.3720   -0.0020 c         1 398      0.707700
     38 O26         2.1470    4.0170    1.0070 o         1 398     -0.564100
     39 N27         2.7650    3.0430   -0.9690 n         1 398     -0.670300
     40 S28         4.3480    3.5310   -1.0840 sy        1 398      1.513900
     41 O29         4.8090    2.9880   -2.3050 o         1 398     -0.638300
     42 O30         4.4530    4.9180   -0.9340 o         1 398     -0.638300
     43 C31         5.1040    2.7400    0.1830 ca        1 398     -0.399500
     44 C36         5.8470    1.5940   -0.0280 ca        1 398      0.035000
     45 C35         6.5290    0.9520    1.0350 ca        1 398     -0.087000
     46 C37         7.2970   -0.2270    0.8200 ca        1 398     -0.058000
     47 C38         7.9470   -0.8340    1.8650 ca        1 398      0.012900
     48 I41         9.0380   -2.5080    1.5720 i         1 398     -0.128900
     49 C39         7.8610   -0.2880    3.1710 ca        1 398     -0.076000
     50 C40         7.1290    0.8490    3.4050 ca        1 398     -0.135000
     51 C34         6.4430    1.4990    2.3420 ca        1 398      0.028000
     52 C33         5.6770    2.6780    2.5460 ca        1 398     -0.140000
     53 C32         5.0280    3.2760    1.4970 ca        1 398     -0.025000
     54 H481       -0.9150   -0.1720    1.2190 h1        1 398      0.055200
     55 H482       -0.2730   -0.3490    2.9180 h1        1 398      0.055200
     56 H441       -2.3090    0.0580    4.7570 h1        1 398      0.069200
     57 H442       -3.6620    1.1080    4.1130 h1        1 398      0.069200
     58 H49        -0.0370   -2.5830    1.2990 ha        1 398      0.127000
     59 H50        -0.8440   -4.9380    1.3990 ha        1 398      0.130000
     60 H51        -3.0170   -5.4660    2.5090 ha        1 398      0.130000
     61 H52        -4.3780   -3.6340    3.5170 ha        1 398      0.136000
     62 H451       -4.6350   -0.7420    2.8530 hc        1 398      0.079700
     63 H452       -4.2710   -1.3370    4.5260 hc        1 398      0.079700
     64 H2          0.1460    2.5490    1.9130 ha        1 398      0.174000
     65 H5         -1.9470    2.4460   -2.6320 ha        1 398      0.156000
     66 H181       -6.8900   -2.3800   -2.6720 h1        1 398      0.056950
     67 H182       -5.8570   -0.8980   -2.4490 h1        1 398      0.056950
     68 H141       -6.9980   -3.8590   -0.5810 h1        1 398      0.056950
     69 H142       -7.3570   -2.8940    0.9280 h1        1 398      0.056950
     70 H191       -3.9740   -2.3460   -1.5890 hc        1 398      0.050700
     71 H192       -4.9980   -3.8190   -1.7980 hc        1 398      0.050700
     72 H201       -5.2500   -3.2970   -4.2500 hc        1 398      0.039200
     73 H202       -4.2250   -1.8250   -4.0410 hc        1 398      0.039200
     74 H211       -2.3130   -3.2670   -3.2580 hc        1 398      0.034200
     75 H212       -3.3410   -4.7410   -3.4730 hc        1 398      0.034200
     76 H213       -2.8860   -3.7390   -4.9120 hc        1 398      0.034200
     77 H151       -9.3110   -1.8070   -0.2290 hc        1 398      0.050700
     78 H152       -8.9640   -2.7450   -1.7340 hc        1 398      0.050700
     79 H161       -9.2190   -4.8980   -0.4470 hc        1 398      0.039200
     80 H162       -9.5750   -3.9550    1.0520 hc        1 398      0.039200
     81 H171      -11.5780   -2.9230   -0.0710 hc        1 398      0.034200
     82 H172      -11.2220   -3.8690   -1.5730 hc        1 398      0.034200
     83 H173      -11.6750   -4.7320   -0.0460 hc        1 398      0.034200
     84 H241       -4.1810    3.2420   -3.2060 hc        1 398      0.065700
     85 H242       -5.4190    4.0060   -2.1150 hc        1 398      0.065700
     86 H243       -3.6520    4.1090   -1.6980 hc        1 398      0.065700
     87 H4          0.3720    3.2420   -2.3610 ha        1 398      0.149000
     88 H27         2.4210    2.4440   -1.6890 hn        1 398      0.336500
     89 H36         5.9310    1.1690   -1.0460 ha        1 398      0.159000
     90 H32         4.4260    4.1920    1.6550 ha        1 398      0.174000
     91 H37         7.3530   -0.6320   -0.2040 ha        1 398      0.150000
     92 H39         8.3900   -0.7840    4.0020 ha        1 398      0.150000
     93 H40         7.0610    1.2770    4.4170 ha        1 398      0.146000
     94 H33         5.6150    3.1010    3.5610 ha        1 398      0.148000
@<TRIPOS>BOND
     1    1    2 2   
     2    2    3 1   
     3    2   13 1   
     4    3    4 1   
     5    3   12 1   
     6    4    5 1   
     7    4   54 1   
     8    4   55 1   
     9    5    6 ar  
    10    5   10 ar  
    11    6    7 ar  
    12    6   58 1   
    13    7    8 ar  
    14    7   59 1   
    15    8    9 ar  
    16    8   60 1   
    17    9   10 ar  
    18    9   61 1   
    19   10   11 1   
    20   11   12 1   
    21   11   62 1   
    22   11   63 1   
    23   12   56 1   
    24   12   57 1   
    25   13   14 ar  
    26   13   36 ar  
    27   14   15 1   
    28   14   33 ar  
    29   15   16 1   
    30   15   31 1   
    31   16   17 2   
    32   17   18 1   
    33   17   29 1   
    34   18   19 2   
    35   18   20 1   
    36   20   21 1   
    37   20   25 1   
    38   21   22 1   
    39   21   66 1   
    40   21   67 1   
    41   22   23 1   
    42   22   70 1   
    43   22   71 1   
    44   23   24 1   
    45   23   72 1   
    46   23   73 1   
    47   24   74 1   
    48   24   75 1   
    49   24   76 1   
    50   25   26 1   
    51   25   68 1   
    52   25   69 1   
    53   26   27 1   
    54   26   77 1   
    55   26   78 1   
    56   27   28 1   
    57   27   79 1   
    58   27   80 1   
    59   28   81 1   
    60   28   82 1   
    61   28   83 1   
    62   29   30 1   
    63   29   31 2   
    64   31   32 1   
    65   32   84 1   
    66   32   85 1   
    67   32   86 1   
    68   33   34 ar  
    69   33   65 1   
    70   34   35 ar  
    71   34   87 1   
    72   35   36 ar  
    73   35   37 1   
    74   36   64 1   
    75   37   38 2   
    76   37   39 1   
    77   39   40 1   
    78   39   88 1   
    79   40   41 2   
    80   40   42 2   
    81   40   43 1   
    82   43   44 ar  
    83   43   53 ar  
    84   44   45 ar  
    85   44   89 1   
    86   45   46 ar  
    87   45   51 ar  
    88   46   47 ar  
    89   46   91 1   
    90   47   48 1   
    91   47   49 ar  
    92   49   50 ar  
    93   49   92 1   
    94   50   51 ar  
    95   50   93 1   
    96   51   52 ar  
    97   52   53 ar  
    98   52   94 1   
    99   53   90 1   
@<TRIPOS>SUBSTRUCTURE
     1 398         1 TEMP              0 ****  ****    0 ROOT
