@<TRIPOS>MOLECULE
398
   94    86     1     0     0
SMALL
bcc


@<TRIPOS>ATOM
      1 O53        -1.4140    3.0390    0.8560 o         1 398     -0.365000
      2 C42        -1.2450    1.9630    0.3240 c1        1 398      0.339000
      3 N43        -1.7590    0.7460    0.9570 n2        1 398     -0.310000
      4 C48        -2.4360    0.8060    2.1510 c3        1 398      0.016000
      5 C47        -2.1700   -0.3980    3.1790 c2        1 398     -0.088000
      6 C49        -2.4720   -0.2850    4.5370 c1        1 398     -0.123000
      7 C50        -2.0160   -1.2620    5.4450 c1        1 398     -0.128000
      8 C51        -1.2480   -2.3660    4.9790 c1        1 398     -0.128000
      9 C52        -0.9400   -2.4840    3.6070 c1        1 398     -0.119000
     10 C46        -1.3900   -1.5180    2.7050 c2        1 398     -0.055000
     11 C45        -0.9990   -1.5320    1.1840 c3        1 398     -0.145000
     12 C44        -1.5790   -0.5010    0.3650 c3        1 398     -0.017000
     13 C1         -0.4990    1.8810   -1.0500 c2        1 398     -0.096000
     14 C6          0.5910    2.7160   -1.2850 c2        1 398      0.108000
     15 N7          1.2950    3.2660   -0.1970 n3        1 398     -0.109000
     16 N11         2.4480    2.7520    0.3670 n2        1 398     -0.034000
     17 C10         2.7810    3.5260    1.4250 c1        1 398     -0.129000
     18 C12         3.9680    3.2820    2.3940 c1        1 398      0.385000
     19 O22         4.1670    4.0480    3.3100 o         1 398     -0.350000
     20 N13         4.9260    2.2090    2.1180 n3        1 398     -0.317000
     21 C18         4.8590    1.4920    0.8560 c3        1 398     -0.018500
     22 C19         5.1660    0.0170    1.0920 c3        1 398     -0.183000
     23 C20         4.0810   -0.8430    0.4420 c3        1 398     -0.158500
     24 C21         3.7680   -2.0370    1.3430 c3        1 398     -0.210500
     25 C14         6.0930    2.0160    3.0110 c3        1 398     -0.018500
     26 C15         5.7780    0.9030    4.0440 c3        1 398     -0.183000
     27 C16         7.0840    0.1150    4.3790 c3        1 398     -0.158500
     28 C17         6.7270   -1.3360    4.7380 c3        1 398     -0.210500
     29 C9          1.8380    4.5300    1.5320 c1        1 398     -0.174000
     30 CL23        1.8200    5.7980    2.7240 cl        1 398      0.056000
     31 C8          0.9250    4.3600    0.5240 c1        1 398     -0.006000
     32 C24        -0.2580    5.3220    0.1850 c2        1 398     -0.183000
     33 C5          1.0960    2.8580   -2.5740 c1        1 398     -0.119000
     34 C4          0.5140    2.1670   -3.6310 c1        1 398     -0.063000
     35 C3         -0.5710    1.3350   -3.4030 c1        1 398     -0.117000
     36 C2         -1.0810    1.1900   -2.1090 c1        1 398     -0.069000
     37 C25        -1.2220    0.5560   -4.5970 c2        1 398      0.372000
     38 O26        -0.7730    0.6840   -5.7210 o         1 398     -0.311000
     39 N27        -2.2640   -0.4000   -4.3470 n         1 398     -0.851000
     40 S28        -2.6490   -1.5460   -5.5190 s4        1 398      2.079800
     41 O29        -2.3200   -1.0750   -6.8410 o         1 398     -0.519400
     42 O30        -1.8000   -2.7040   -5.4150 o         1 398     -0.519400
     43 C31        -4.3740   -1.9960   -5.4020 c1        1 398     -0.845000
     44 C36        -4.7700   -3.2600   -4.9840 c2        1 398      0.036000
     45 C35        -6.1120   -3.4950   -4.6220 c1        1 398     -0.084000
     46 C37        -6.5150   -4.7780   -4.1970 c1        1 398     -0.058000
     47 C38        -7.8380   -5.0060   -3.8380 c1        1 398     -0.271000
     48 I41        -8.1750   -6.9290   -3.0300 i         1 398      0.161000
     49 C39        -8.7650   -3.9690   -3.8990 c2        1 398     -0.074000
     50 C40        -8.3690   -2.7060   -4.3180 c1        1 398     -0.134000
     51 C34        -7.0270   -2.4720   -4.6820 c1        1 398      0.024000
     52 C33        -6.6240   -1.1910   -5.1060 c1        1 398     -0.135000
     53 C32        -5.3000   -0.9610   -5.4620 c1        1 398     -0.044000
     54 H481       -2.1730    1.6370    2.5960 h1        1 398      0.105000
     55 H482       -3.3960    0.8120    1.9460 h1        1 398      0.105000
     56 H441       -2.4590   -0.8190    0.0560 h1        1 398      0.090000
     57 H442       -1.0010   -0.3810   -0.4260 h1        1 398      0.090000
     58 H49        -3.0030    0.4790    4.8610 ha        1 398      0.132000
     59 H50        -2.2320   -1.1800    6.4100 ha        1 398      0.132000
     60 H51        -0.9300   -3.0480    5.6160 ha        1 398      0.132000
     61 H52        -0.4110   -3.2450    3.2860 ha        1 398      0.138000
     62 H451       -1.2670   -2.4080    0.8080 hc        1 398      0.119000
     63 H452       -0.0240   -1.4570    1.1200 hc        1 398      0.119000
     64 H2         -1.8470    0.6030   -1.9480 ha        1 398      0.155000
     65 H5          1.8630    3.4460   -2.7370 ha        1 398      0.163000
     66 H181        3.9640    1.5820    0.4780 h1        1 398      0.094000
     67 H182        5.5170    1.8670    0.2320 h1        1 398      0.094000
     68 H141        6.8710    1.7550    2.4780 h1        1 398      0.094000
     69 H142        6.2850    2.8510    3.4810 h1        1 398      0.094000
     70 H191        5.1900   -0.1610    2.0500 hc        1 398      0.091000
     71 H192        6.0350   -0.2030    0.6980 hc        1 398      0.091000
     72 H201        4.3960   -1.1630   -0.4260 hc        1 398      0.081250
     73 H202        3.2720   -0.3080    0.3160 hc        1 398      0.081250
     74 H211        3.0250   -2.5560    0.9560 hc        1 398      0.073000
     75 H212        3.5150   -1.7170    2.2310 hc        1 398      0.073000
     76 H213        4.5620   -2.6070    1.4160 hc        1 398      0.073000
     77 H151        5.1170    0.2910    3.6700 hc        1 398      0.091000
     78 H152        5.4200    1.3100    4.8670 hc        1 398      0.091000
     79 H161        7.6760    0.1220    3.6070 hc        1 398      0.081250
     80 H162        7.5350    0.5390    5.1410 hc        1 398      0.081250
     81 H171        6.4360   -1.8090    3.9320 hc        1 398      0.073000
     82 H172        6.0030   -1.3390    5.3980 hc        1 398      0.073000
     83 H173        7.5200   -1.7870    5.1170 hc        1 398      0.073000
     84 H241       -1.0440    5.0810    0.7290 ha        1 398      0.114333
     85 H242        0.0050    6.2460    0.3820 ha        1 398      0.114333
     86 H243       -0.4830    5.2410   -0.7680 ha        1 398      0.114333
     87 H4          0.8700    2.2690   -4.5350 ha        1 398      0.170000
     88 H27        -2.7660   -0.3410   -3.5820 hn        1 398      0.246000
     89 H36        -4.1080   -3.9750   -4.8950 ha        1 398      0.162000
     90 H32        -5.0110   -0.0570   -5.7210 ha        1 398      0.159000
     91 H37        -5.8820   -5.5250   -4.2300 ha        1 398      0.152000
     92 H39        -9.6940   -4.1300   -3.6470 ha        1 398      0.151000
     93 H40        -9.0220   -1.9770   -4.3610 ha        1 398      0.146000
     94 H33        -7.2730   -0.4650   -5.1480 ha        1 398      0.147000
@<TRIPOS>BOND
     1    1    2 1   
     2    2   13 1   
     3    3    4 1   
     4    3   12 1   
     5    4    5 1   
     6    4   54 1   
     7    4   55 1   
     8    5    6 1   
     9    5   10 1   
    10    6   58 1   
    11    7    8 1   
    12    7   59 1   
    13    8   60 1   
    14    9   10 1   
    15    9   61 1   
    16   10   11 1   
    17   11   12 1   
    18   11   62 1   
    19   11   63 1   
    20   12   56 1   
    21   12   57 1   
    22   13   14 1   
    23   13   36 1   
    24   14   15 1   
    25   14   33 1   
    26   15   16 1   
    27   15   31 1   
    28   16   17 1   
    29   17   29 1   
    30   18   19 1   
    31   18   20 1   
    32   20   21 1   
    33   20   25 1   
    34   21   22 1   
    35   21   66 1   
    36   21   67 1   
    37   22   23 1   
    38   22   70 1   
    39   22   71 1   
    40   23   24 1   
    41   23   72 1   
    42   23   73 1   
    43   24   74 1   
    44   24   75 1   
    45   24   76 1   
    46   25   26 1   
    47   25   68 1   
    48   25   69 1   
    49   26   27 1   
    50   26   77 1   
    51   26   78 1   
    52   27   28 1   
    53   27   79 1   
    54   27   80 1   
    55   28   81 1   
    56   28   82 1   
    57   28   83 1   
    58   29   31 1   
    59   32   84 1   
    60   32   85 1   
    61   32   86 1   
    62   33   65 1   
    63   34   35 1   
    64   34   87 1   
    65   35   37 1   
    66   36   64 1   
    67   37   38 1   
    68   37   39 1   
    69   39   40 1   
    70   39   88 1   
    71   40   41 1   
    72   40   42 1   
    73   43   44 1   
    74   43   53 1   
    75   44   45 1   
    76   44   89 1   
    77   45   51 1   
    78   46   47 1   
    79   46   91 1   
    80   47   49 1   
    81   49   50 1   
    82   49   92 1   
    83   50   93 1   
    84   51   52 1   
    85   52   94 1   
    86   53   90 1   
@<TRIPOS>SUBSTRUCTURE
     1 398         1 TEMP              0 ****  ****    0 ROOT
