@<TRIPOS>MOLECULE
398
   96   100     1     0     0
SMALL
bcc


@<TRIPOS>ATOM
      1 O53         0.4660   -0.8570   -0.1490 o         1 398     -0.574100
      2 C42         1.6910   -0.9570    0.0570 c         1 398      0.657700
      3 N43         2.2030   -1.2040    1.3280 n         1 398     -0.442800
      4 C48         3.4590   -1.9030    1.5120 c3        1 398      0.124300
      5 C47         3.3210   -3.2840    2.0890 ca        1 398     -0.118300
      6 C49         4.4060   -4.1620    2.0030 ca        1 398     -0.119000
      7 C50         4.3300   -5.4280    2.5770 ca        1 398     -0.123000
      8 C51         3.1660   -5.8260    3.2370 ca        1 398     -0.120000
      9 C52         2.0800   -4.9580    3.3180 ca        1 398     -0.144000
     10 C46         2.1490   -3.6790    2.7510 ca        1 398     -0.082300
     11 C45         0.9800   -2.7680    2.8670 c3        1 398     -0.063100
     12 C44         1.2880   -1.3300    2.4480 c3        1 398      0.073000
     13 C1          2.6560   -0.6600   -1.0530 ca        1 398     -0.103600
     14 C6          2.4930   -1.2210   -2.3380 ca        1 398      0.058800
     15 N7          1.4310   -2.1450   -2.6130 na        1 398      0.205300
     16 N11         1.2980   -3.2980   -1.9700 nc        1 398     -0.474800
     17 C10         0.1780   -3.9130   -2.4800 cd        1 398      0.213800
     18 C12        -0.3240   -5.2160   -2.0630 c         1 398      0.496600
     19 O22        -1.1960   -5.8770   -2.6090 o         1 398     -0.407100
     20 N13         0.3000   -5.8010   -0.8060 nx        1 398     -0.583200
     21 C18         0.2100   -7.2960   -0.8190 c3        1 398      0.105300
     22 C19         0.9700   -7.9640    0.3180 c3        1 398     -0.103400
     23 C20         0.9350   -9.4690    0.1240 c3        1 398     -0.077900
     24 C21         1.6510  -10.1720    1.2490 c3        1 398     -0.099100
     25 C14        -0.3330   -5.1790    0.4040 c3        1 398      0.105300
     26 C15        -1.7700   -5.6030    0.6700 c3        1 398     -0.103400
     27 C16        -2.3660   -4.7040    1.7370 c3        1 398     -0.077900
     28 C17        -3.7710   -5.1300    2.0750 c3        1 398     -0.099100
     29 C9         -0.4250   -3.0730   -3.4970 cd        1 398     -0.090900
     30 Cl23       -1.7820   -3.3690   -4.3920 cl        1 398      0.048600
     31 C8          0.4010   -1.9280   -3.5610 cc        1 398     -0.044600
     32 C24         0.2270   -0.7230   -4.3830 c3        1 398     -0.051800
     33 C5          3.3820   -0.8730   -3.3760 ca        1 398     -0.119000
     34 C4          4.3930    0.0560   -3.1450 ca        1 398     -0.073000
     35 C3          4.5350    0.6320   -1.8800 ca        1 398     -0.160600
     36 C2          3.6820    0.2660   -0.8360 ca        1 398     -0.052000
     37 C25         5.6300    1.5990   -1.6080 c         1 398      0.638700
     38 O26         6.6450    1.3250   -0.9600 o         1 398     -0.491100
     39 N27         5.5150    2.9100   -2.1770 nt        1 398     -0.713000
     40 S28         6.7460    3.2700   -4.3150 s4        1 398      1.684300
     41 O29         6.7080    1.9390   -4.5870 o         1 398     -0.438400
     42 O30         5.7470    4.0990   -4.7120 o         1 398     -0.438400
     43 C31         8.0340    3.8710   -3.7290 ca        1 398     -0.647500
     44 C36         9.1470    3.0990   -3.3380 ca        1 398      0.135000
     45 C35        10.3210    3.6790   -2.8450 ca        1 398     -0.108000
     46 C37        11.4400    2.8770   -2.4590 ca        1 398     -0.037000
     47 C38        12.5860    3.4660   -1.9840 ca        1 398      0.011900
     48 I41        14.1720    2.3430   -1.4390 i         1 398     -0.049900
     49 C39        12.6660    4.8780   -1.8720 ca        1 398      0.002000
     50 C40        11.6010    5.6770   -2.2340 ca        1 398     -0.152000
     51 C34        10.4100    5.1000   -2.7270 ca        1 398      0.080000
     52 C33         9.2850    5.8880   -3.1150 ca        1 398     -0.104000
     53 C32         8.1520    5.3030   -3.5920 ca        1 398     -0.050000
     54 H481        4.0800   -1.2880    2.2320 h1        1 398      0.068200
     55 H482        4.0180   -1.9610    0.5350 h1        1 398      0.068200
     56 H441        1.7750   -0.7950    3.3150 h1        1 398      0.082200
     57 H442        0.3230   -0.8020    2.2020 h1        1 398      0.082200
     58 H49         5.3290   -3.8430    1.4940 ha        1 398      0.140000
     59 H50         5.1940   -6.1090    2.5240 ha        1 398      0.150000
     60 H51         3.1140   -6.8190    3.7090 ha        1 398      0.149000
     61 H52         1.1700   -5.2630    3.8580 ha        1 398      0.141000
     62 H451        0.1370   -3.1720    2.2400 hc        1 398      0.063200
     63 H452        0.6170   -2.7480    3.9300 hc        1 398      0.063200
     64 H2          3.8150    0.7040    0.1690 ha        1 398      0.176000
     65 H5          3.2880   -1.3320   -4.3750 ha        1 398      0.175000
     66 H181        0.6240   -7.6430   -1.8110 hx        1 398      0.107200
     67 H182       -0.8820   -7.5810   -0.7810 hx        1 398      0.107200
     68 H141        0.3140   -5.4430    1.2930 hx        1 398      0.107200
     69 H142       -0.2920   -4.0590    0.2570 hx        1 398      0.107200
     70 H191        0.5000   -7.7050    1.3040 hc        1 398      0.065950
     71 H192        2.0360   -7.6160    0.3430 hc        1 398      0.065950
     72 H201       -0.1300   -9.8190    0.0780 hc        1 398      0.052450
     73 H202        1.4170   -9.7350   -0.8540 hc        1 398      0.052450
     74 H211        1.1690   -9.9460    2.2310 hc        1 398      0.050200
     75 H212        1.6180  -11.2770    1.0880 hc        1 398      0.050200
     76 H213        2.7210   -9.8550    1.2990 hc        1 398      0.050200
     77 H151       -2.3860   -5.5350   -0.2660 hc        1 398      0.065950
     78 H152       -1.8010   -6.6690    1.0210 hc        1 398      0.065950
     79 H161       -2.3700   -3.6410    1.3760 hc        1 398      0.052450
     80 H162       -1.7260   -4.7400    2.6590 hc        1 398      0.052450
     81 H171       -4.4280   -5.0830    1.1730 hc        1 398      0.050200
     82 H172       -4.1970   -4.4540    2.8560 hc        1 398      0.050200
     83 H173       -3.7860   -6.1760    2.4690 hc        1 398      0.050200
     84 H241        1.2060   -0.2570   -4.6560 hc        1 398      0.080033
     85 H242       -0.3180   -0.9910   -5.3240 hc        1 398      0.080033
     86 H243       -0.3850    0.0320   -3.8220 hc        1 398      0.080033
     87 H4          5.0910    0.3140   -3.9620 ha        1 398      0.175000
     88 H27         5.9280    3.6070   -1.5790 hn        1 398      0.308000
     89 H36         9.0940    1.9940   -3.4270 ha        1 398      0.169000
     90 H32         7.2910    5.9260   -3.9000 ha        1 398      0.171000
     91 H37        11.3560    1.7810   -2.5560 ha        1 398      0.166000
     92 H39        13.5950    5.3420   -1.4900 ha        1 398      0.183000
     93 H40        11.6710    6.7750   -2.1460 ha        1 398      0.175000
     94 H33         9.3570    6.9870   -3.0260 ha        1 398      0.181000
     95 H131        1.2980   -5.5520   -0.7860 hn        1 398      0.460800
     96 H272        4.5640    3.1530   -2.3980 hn        1 398      0.308000
@<TRIPOS>BOND
     1    1    2 2   
     2    2    3 1   
     3    2   13 1   
     4    3    4 1   
     5    3   12 1   
     6    4    5 1   
     7    4   54 1   
     8    4   55 1   
     9    5    6 ar  
    10    5   10 ar  
    11    6    7 ar  
    12    6   58 1   
    13    7    8 ar  
    14    7   59 1   
    15    8    9 ar  
    16    8   60 1   
    17    9   10 ar  
    18    9   61 1   
    19   10   11 1   
    20   11   12 1   
    21   11   62 1   
    22   11   63 1   
    23   12   56 1   
    24   12   57 1   
    25   13   14 ar  
    26   13   36 ar  
    27   14   15 1   
    28   14   33 ar  
    29   15   16 1   
    30   15   31 1   
    31   16   17 2   
    32   17   18 1   
    33   17   29 1   
    34   18   19 2   
    35   18   20 1   
    36   20   21 1   
    37   20   25 1   
    38   20   95 1   
    39   21   22 1   
    40   21   66 1   
    41   21   67 1   
    42   22   23 1   
    43   22   70 1   
    44   22   71 1   
    45   23   24 1   
    46   23   72 1   
    47   23   73 1   
    48   24   74 1   
    49   24   75 1   
    50   24   76 1   
    51   25   26 1   
    52   25   68 1   
    53   25   69 1   
    54   26   27 1   
    55   26   77 1   
    56   26   78 1   
    57   27   28 1   
    58   27   79 1   
    59   27   80 1   
    60   28   81 1   
    61   28   82 1   
    62   28   83 1   
    63   29   30 1   
    64   29   31 2   
    65   31   32 1   
    66   32   84 1   
    67   32   85 1   
    68   32   86 1   
    69   33   34 ar  
    70   33   65 1   
    71   34   35 ar  
    72   34   87 1   
    73   35   36 ar  
    74   35   37 1   
    75   36   64 1   
    76   37   38 2   
    77   37   39 1   
    78   39   88 1   
    79   39   96 1   
    80   40   41 1   
    81   40   42 1   
    82   40   43 1   
    83   43   44 ar  
    84   43   53 ar  
    85   44   45 ar  
    86   44   89 1   
    87   45   46 ar  
    88   45   51 ar  
    89   46   47 ar  
    90   46   91 1   
    91   47   48 1   
    92   47   49 ar  
    93   49   50 ar  
    94   49   92 1   
    95   50   51 ar  
    96   50   93 1   
    97   51   52 ar  
    98   52   53 ar  
    99   52   94 1   
   100   53   90 1   
@<TRIPOS>SUBSTRUCTURE
     1 398         1 TEMP              0 ****  ****    0 ROOT
