@<TRIPOS>MOLECULE
39A
   22    23     1     0     0
SMALL
bcc


@<TRIPOS>ATOM
      1 N6         -0.0290    0.0220    0.0050 nv        1 39A     -0.415100
      2 C6          1.3150    0.0340   -0.0030 cc        1 39A      0.543300
      3 C5          2.0790   -0.0260    1.2170 cc        1 39A      0.139000
      4 N7          1.6730   -0.1010    2.5540 nc        1 39A     -0.600000
      5 C4          3.5310   -0.0090    1.1470 cd        1 39A      0.083000
      6 N9          3.9810   -0.0710    2.4640 na        1 39A     -0.199900
      7 C8          2.8060   -0.1280    3.2680 cd        1 39A      0.472400
      8 C9M         5.3260   -0.1160    2.9460 c3        1 39A      0.004600
      9 N3          4.1840    0.0610   -0.0730 na        1 39A     -0.554000
     10 C3M         5.6220    0.1080   -0.1920 c3        1 39A      0.171100
     11 C2          3.3510    0.1170   -1.1880 cd        1 39A      0.706100
     12 N1          2.0300    0.1040   -1.2080 nc        1 39A     -0.719000
     13 HN61       -0.5550    0.0640   -0.8420 hn        1 39A      0.330700
     14 HN62       -0.5160   -0.0300    0.8750 hn        1 39A      0.330700
     15 H8          2.8730   -0.1850    4.3660 h5        1 39A      0.104100
     16 H9M1        5.3210    0.0540    4.0570 h1        1 39A      0.081367
     17 H9M2        5.9400    0.6880    2.4560 h1        1 39A      0.081367
     18 H9M3        5.7830   -1.1210    2.7320 h1        1 39A      0.081367
     19 H3M1        6.0810   -0.7070    0.4290 h1        1 39A      0.084700
     20 H3M2        6.0000    1.1090    0.1560 h1        1 39A      0.084700
     21 H3M3        5.9180   -0.0430   -1.2660 h1        1 39A      0.084700
     22 H2          3.8620    0.1750   -2.1810 h5        1 39A      0.104800
@<TRIPOS>BOND
     1    1    2 2   
     2    1   13 1   
     3    1   14 1   
     4    2    3 1   
     5    2   12 1   
     6    3    4 1   
     7    3    5 2   
     8    4    7 2   
     9    5    6 1   
    10    5    9 1   
    11    6    7 1   
    12    6    8 1   
    13    7   15 1   
    14    8   16 1   
    15    8   17 1   
    16    8   18 1   
    17    9   10 1   
    18    9   11 1   
    19   10   19 1   
    20   10   20 1   
    21   10   21 1   
    22   11   12 2   
    23   11   22 1   
@<TRIPOS>SUBSTRUCTURE
     1 39A         1 TEMP              0 ****  ****    0 ROOT
