@<TRIPOS>MOLECULE
39A
   22    23     1     0     0
SMALL
bcc


@<TRIPOS>ATOM
      1 N6         -0.0260    0.0250   -0.0030 nh        1 39A     -0.415100
      2 C6          1.3170    0.0400   -0.0080 cc        1 39A      0.543300
      3 C5          2.0780   -0.0320    1.2130 cc        1 39A      0.139000
      4 N7          1.6690   -0.1230    2.5490 nc        1 39A     -0.600000
      5 C4          3.5300   -0.0110    1.1470 cd        1 39A      0.083000
      6 N9          3.9780   -0.0870    2.4640 na        1 39A     -0.199900
      7 C8          2.8010   -0.1560    3.2650 cd        1 39A      0.472400
      8 C9M         5.3220   -0.1340    2.9490 c3        1 39A      0.004600
      9 N3          4.1870    0.0750   -0.0700 na        1 39A     -0.554000
     10 C3M         5.6240    0.1270   -0.1860 c3        1 39A      0.171100
     11 C2          3.3560    0.1410   -1.1860 cd        1 39A      0.706100
     12 N1          2.0350    0.1270   -1.2110 nc        1 39A     -0.719000
     13 HN61       -0.5500    0.0760   -0.8510 hn        1 39A      0.330700
     14 HN62       -0.5160   -0.0380    0.8650 hn        1 39A      0.330700
     15 H8          2.8650   -0.2250    4.3620 h5        1 39A      0.104100
     16 H9M1        5.3140    0.0220    4.0620 h1        1 39A      0.081367
     17 H9M2        5.7820   -1.1350    2.7230 h1        1 39A      0.081367
     18 H9M3        5.9350    0.6770    2.4700 h1        1 39A      0.081367
     19 H3M1        6.0000    1.1230    0.1750 h1        1 39A      0.084700
     20 H3M2        6.0840   -0.6950    0.4280 h1        1 39A      0.084700
     21 H3M3        5.9240   -0.0110   -1.2600 h1        1 39A      0.084700
     22 H2          3.8700    0.2130   -2.1780 h5        1 39A      0.104800
@<TRIPOS>BOND
     1    1    2 2   
     2    1   13 1   
     3    1   14 1   
     4    2    3 1   
     5    2   12 1   
     6    3    4 1   
     7    3    5 2   
     8    4    7 2   
     9    5    6 1   
    10    5    9 1   
    11    6    7 1   
    12    6    8 1   
    13    7   15 1   
    14    8   16 1   
    15    8   17 1   
    16    8   18 1   
    17    9   10 1   
    18    9   11 1   
    19   10   19 1   
    20   10   20 1   
    21   10   21 1   
    22   11   12 2   
    23   11   22 1   
@<TRIPOS>SUBSTRUCTURE
     1 39A         1 TEMP              0 ****  ****    0 ROOT
