@<TRIPOS>MOLECULE
39A
   22    17     1     0     0
SMALL
bcc


@<TRIPOS>ATOM
      1 N6         -3.5360   -0.0030   -0.6090 n3        1 39A     -0.261000
      2 C6         -2.1140   -0.0030   -0.6090 c2        1 39A      0.299000
      3 C5         -1.1980   -0.0030    0.4320 c1        1 39A     -0.219000
      4 N7         -1.3530   -0.0030    1.7820 n1        1 39A     -0.114500
      5 C4          0.1240   -0.0030    0.1650 c1        1 39A      0.091000
      6 N9          0.7920   -0.0030    1.3500 n1        1 39A     -0.114500
      7 C8         -0.1230   -0.0030    2.3450 c1        1 39A     -0.016000
      8 C9M         1.9890    0.4460    1.9830 c2        1 39A     -0.094000
      9 N3          0.5580   -0.0030   -1.1280 n2        1 39A     -0.162000
     10 C3M         1.8000   -0.4420   -1.6800 c3        1 39A     -0.105000
     11 C2         -0.3450   -0.0030   -2.1510 c1        1 39A      0.137000
     12 N1         -1.6840   -0.0030   -1.8820 n1        1 39A     -0.212000
     13 HN61       -3.9910   -0.6020   -0.0940 hn        1 39A      0.281000
     14 HN62       -3.9910    0.6180   -1.0980 hn        1 39A      0.281000
     15 H8          0.0700   -0.0060    3.3020 DU        1 39A      0.241000
     16 H9M1        2.3170   -0.2470    2.5890 ha        1 39A      0.120667
     17 H9M2        1.8050    1.2600    2.4900 ha        1 39A      0.120667
     18 H9M3        2.6660    0.6310    1.3050 ha        1 39A      0.120667
     19 H3M1        2.2760    0.3220   -2.0570 h1        1 39A      0.124000
     20 H3M2        1.6300   -1.0980   -2.3820 h1        1 39A      0.124000
     21 H3M3        2.3420   -0.8490   -0.9770 h1        1 39A      0.124000
     22 H2         -0.0340   -0.0030   -3.0760 ha        1 39A      0.234000
@<TRIPOS>BOND
     1    1    2 1   
     2    1   13 1   
     3    1   14 1   
     4    2    3 1   
     5    2   12 1   
     6    3    5 1   
     7    4    7 1   
     8    6    7 1   
     9    8   16 1   
    10    8   17 1   
    11    8   18 1   
    12    9   10 1   
    13    9   11 1   
    14   10   19 1   
    15   10   20 1   
    16   10   21 1   
    17   11   22 1   
@<TRIPOS>SUBSTRUCTURE
     1 39A         1 TEMP              0 ****  ****    0 ROOT
