@<TRIPOS>MOLECULE
39A
   23    24     1     0     0
SMALL
bcc


@<TRIPOS>ATOM
      1 N6         -0.1040    0.0010   -0.0250 n4        1 39A     -0.824300
      2 C6          1.3680   -0.0060   -0.0160 cc        1 39A      0.600200
      3 C5          2.0640   -0.0040    1.1980 cd        1 39A     -0.022900
      4 N7          1.6620   -0.0070    2.5370 nd        1 39A     -0.530100
      5 C4          3.5600   -0.0020    1.1350 cd        1 39A      0.088700
      6 N9          3.9850   -0.0060    2.4550 na        1 39A     -0.164500
      7 C8          2.7970   -0.0060    3.2520 cc        1 39A      0.552700
      8 C9M         5.3280    0.0190    2.9690 c3        1 39A     -0.015400
      9 N3          4.1980   -0.0010   -0.0780 na        1 39A     -0.106900
     10 C3M         5.6470   -0.0170   -0.2130 c3        1 39A     -0.038400
     11 C2          3.3770   -0.0050   -1.2050 cd        1 39A      0.602400
     12 N1          2.0400   -0.0070   -1.2120 nc        1 39A     -0.641000
     13 HN61       -0.4380    0.9800   -0.0240 hn        1 39A      0.506133
     14 HN62       -0.4560   -0.4790    0.8200 hn        1 39A      0.506133
     15 H8          2.8540   -0.0080    4.3630 h5        1 39A      0.152800
     16 H9M1        5.7620    1.0520    2.8610 h1        1 39A      0.108033
     17 H9M2        5.3040   -0.2560    4.0610 h1        1 39A      0.108033
     18 H9M3        5.9650   -0.7270    2.4200 h1        1 39A      0.108033
     19 H3M1        6.1010    0.7320    0.4940 h1        1 39A      0.120033
     20 H3M2        6.0320   -1.0500    0.0170 h1        1 39A      0.120033
     21 H3M3        5.9340    0.2570   -1.2670 h1        1 39A      0.120033
     22 H2          3.8830   -0.0070   -2.2100 h5        1 39A      0.145100
     23 H63        -0.4720   -0.4730   -0.8690 hn        1 39A      0.506133
@<TRIPOS>BOND
     1    1    2 1   
     2    1   13 1   
     3    1   14 1   
     4    1   23 1   
     5    2    3 2   
     6    2   12 1   
     7    3    4 1   
     8    3    5 1   
     9    4    7 2   
    10    5    6 2   
    11    5    9 1   
    12    6    7 1   
    13    6    8 1   
    14    7   15 1   
    15    8   16 1   
    16    8   17 1   
    17    8   18 1   
    18    9   10 1   
    19    9   11 1   
    20   10   19 1   
    21   10   20 1   
    22   10   21 1   
    23   11   12 2   
    24   11   22 1   
@<TRIPOS>SUBSTRUCTURE
     1 39A         1 TEMP              0 ****  ****    0 ROOT
