@<TRIPOS>MOLECULE
39A
   22    23     1     0     0
SMALL
bcc


@<TRIPOS>ATOM
      1 N6         -3.0530    0.9120    0.0060 nh        1 39A     -0.415100
      2 C6         -1.9330    0.1690    0.0170 cc        1 39A      0.543300
      3 C5         -0.6250    0.7720   -0.0170 cc        1 39A      0.139000
      4 N7         -0.2320    2.1150   -0.0640 nc        1 39A     -0.600000
      5 C4          0.5510   -0.0810   -0.0040 cd        1 39A      0.083000
      6 N9          1.6490    0.7740   -0.0480 na        1 39A     -0.199900
      7 C8          1.1070    2.0910   -0.0800 cd        1 39A      0.472400
      8 C9M         3.0400    0.4430   -0.0240 c3        1 39A      0.004600
      9 N3          0.4290   -1.4610    0.0420 na        1 39A     -0.554000
     10 C3M         1.5650   -2.3510    0.0290 c3        1 39A      0.171100
     11 C2         -0.8790   -1.9390    0.0690 cd        1 39A      0.706100
     12 N1         -1.9960   -1.2320    0.0620 nc        1 39A     -0.719000
     13 HN61       -2.9840    1.9070   -0.0250 hn        1 39A      0.330700
     14 HN62       -3.9570    0.4900    0.0290 hn        1 39A      0.330700
     15 H8          1.7650    2.9740   -0.1170 h5        1 39A      0.104100
     16 H9M1        3.3400    0.0960    1.0030 h1        1 39A      0.081367
     17 H9M2        3.2600   -0.3660   -0.7720 h1        1 39A      0.081367
     18 H9M3        3.6370    1.3580   -0.2880 h1        1 39A      0.081367
     19 H3M1        2.0390   -2.3490   -0.9910 h1        1 39A      0.084700
     20 H3M2        2.3170   -2.0180    0.7940 h1        1 39A      0.084700
     21 H3M3        1.2320   -3.3950    0.2760 h1        1 39A      0.084700
     22 H2         -0.9960   -3.0500    0.1050 h5        1 39A      0.104800
@<TRIPOS>BOND
     1    1    2 2   
     2    1   13 1   
     3    1   14 1   
     4    2    3 1   
     5    2   12 1   
     6    3    4 1   
     7    3    5 2   
     8    4    7 2   
     9    5    6 1   
    10    5    9 1   
    11    6    7 1   
    12    6    8 1   
    13    7   15 1   
    14    8   16 1   
    15    8   17 1   
    16    8   18 1   
    17    9   10 1   
    18    9   11 1   
    19   10   19 1   
    20   10   20 1   
    21   10   21 1   
    22   11   12 2   
    23   11   22 1   
@<TRIPOS>SUBSTRUCTURE
     1 39A         1 TEMP              0 ****  ****    0 ROOT
