@<TRIPOS>MOLECULE
39C
   33    33     1     0     0
SMALL
bcc


@<TRIPOS>ATOM
      1 N22        -0.0230   -0.3070   -0.2530 n4        1 39C     -0.838600
      2 C8          1.4640   -0.3110   -0.0240 c3        1 39C      0.010500
      3 C9          1.7970   -0.4190    1.4740 c         1 39C      0.580100
      4 O20         0.9120   -0.2370    2.3110 o         1 39C     -0.506100
      5 C10         3.2290   -0.7480    1.7950 c3        1 39C     -0.149700
      6 C11         3.2960   -1.9900    2.6610 c3        1 39C     -0.100100
      7 C12         3.8730    0.4330    2.5300 c3        1 39C      0.134400
      8 O13         3.8820    1.5270    1.6250 oh        1 39C     -0.633800
      9 C7          2.1130    0.9550   -0.6060 c3        1 39C     -0.051100
     10 C6          1.7560    1.1390   -2.0370 ca        1 39C     -0.159300
     11 C5          2.4520    0.4460   -3.0340 ca        1 39C     -0.135500
     12 C4          2.1340    0.6440   -4.3780 ca        1 39C     -0.113500
     13 C3          1.1230    1.5380   -4.7330 ca        1 39C     -0.099000
     14 C2          0.4320    2.2380   -3.7430 ca        1 39C     -0.113500
     15 C1          0.7460    2.0410   -2.4000 ca        1 39C     -0.135500
     16 H28        -0.3840   -1.2620   -0.2470 hn        1 39C      0.466800
     17 H29         1.8760   -1.2180   -0.5600 hx        1 39C      0.121700
     18 H35         4.3590   -2.2020    2.9350 hc        1 39C      0.063033
     19 H36         2.7060   -1.8460    3.5990 hc        1 39C      0.063033
     20 H37         2.8890   -2.8730    2.1130 hc        1 39C      0.063033
     21 H38         3.2750    0.6970    3.4440 h1        1 39C      0.060200
     22 H39         4.9200    0.1580    2.8280 h1        1 39C      0.060200
     23 H40         4.4260    2.2190    2.0220 ho        1 39C      0.433000
     24 H45         3.2290    0.8440   -0.4860 hc        1 39C      0.109700
     25 H46         1.8210    1.8520    0.0040 hc        1 39C      0.109700
     26 H47         3.2660   -0.2430   -2.7600 ha        1 39C      0.136500
     27 H48         2.6920    0.1030   -5.1590 ha        1 39C      0.156000
     28 H49         0.8800    1.7010   -5.7960 ha        1 39C      0.159000
     29 H50        -0.3530    2.9590   -4.0240 ha        1 39C      0.156000
     30 H51         0.2300    2.6320   -1.6280 ha        1 39C      0.136500
     31 H2         -0.2300    0.1410   -1.1570 hn        1 39C      0.466800
     32 H32         3.8000   -0.9230    0.8400 hc        1 39C      0.081700
     33 H223       -0.4780    0.2210    0.5040 hn        1 39C      0.466800
@<TRIPOS>BOND
     1    1    2 1   
     2    1   16 1   
     3    1   31 1   
     4    1   33 1   
     5    2    3 1   
     6    2    9 1   
     7    2   17 1   
     8    3    4 2   
     9    3    5 1   
    10    5    6 1   
    11    5    7 1   
    12    5   32 1   
    13    6   18 1   
    14    6   19 1   
    15    6   20 1   
    16    7    8 1   
    17    7   21 1   
    18    7   22 1   
    19    8   23 1   
    20    9   10 1   
    21    9   24 1   
    22    9   25 1   
    23   10   11 ar  
    24   10   15 ar  
    25   11   12 ar  
    26   11   26 1   
    27   12   13 ar  
    28   12   27 1   
    29   13   14 ar  
    30   13   28 1   
    31   14   15 ar  
    32   14   29 1   
    33   15   30 1   
@<TRIPOS>SUBSTRUCTURE
     1 39C         1 TEMP              0 ****  ****    0 ROOT
