@<TRIPOS>MOLECULE
39C
   33    33     1     0     0
SMALL
bcc


@<TRIPOS>ATOM
      1 N22        -0.0400   -0.2540   -0.2260 nz        1 39C     -0.838600
      2 C8          1.4480   -0.2950   -0.0060 c3        1 39C      0.010500
      3 C9          1.7890   -0.3900    1.4910 c         1 39C      0.580100
      4 O20         0.9150   -0.1710    2.3310 o         1 39C     -0.506100
      5 C10         3.2140   -0.7530    1.8070 c3        1 39C     -0.149700
      6 C11         3.2520   -1.9830    2.6920 c3        1 39C     -0.100100
      7 C12         3.8950    0.4210    2.5200 c3        1 39C      0.134400
      8 O13         3.9270    1.5000    1.5990 oh        1 39C     -0.633800
      9 C7          2.1270    0.9440   -0.6120 c3        1 39C     -0.051100
     10 C6          1.7660    1.1160   -2.0430 ca        1 39C     -0.159300
     11 C5          2.4360    0.3890   -3.0340 ca        1 39C     -0.135500
     12 C4          2.1150    0.5760   -4.3780 ca        1 39C     -0.113500
     13 C3          1.1260    1.4910   -4.7410 ca        1 39C     -0.099000
     14 C2          0.4600    2.2240   -3.7570 ca        1 39C     -0.113500
     15 C1          0.7770    2.0380   -2.4130 ca        1 39C     -0.135500
     16 H28        -0.2400    0.1850   -1.1350 hn        1 39C      0.466800
     17 H29         1.8310   -1.2210   -0.5310 hx        1 39C      0.121700
     18 H35         2.8180   -2.8630    2.1590 hc        1 39C      0.063033
     19 H36         4.3100   -2.2210    2.9620 hc        1 39C      0.063033
     20 H37         2.6730   -1.8090    3.6320 hc        1 39C      0.063033
     21 H38         3.3110    0.7150    3.4330 h1        1 39C      0.060200
     22 H39         4.9350    0.1210    2.8150 h1        1 39C      0.060200
     23 H40         4.4920    2.1830    1.9810 ho        1 39C      0.433000
     24 H45         3.2410    0.8040   -0.4980 hc        1 39C      0.109700
     25 H46         1.8640    1.8580   -0.0130 hc        1 39C      0.109700
     26 H47         3.2330   -0.3160   -2.7550 ha        1 39C      0.136500
     27 H48         2.6530    0.0090   -5.1550 ha        1 39C      0.156000
     28 H49         0.8790    1.6450   -5.8040 ha        1 39C      0.159000
     29 H50        -0.3070    2.9610   -4.0440 ha        1 39C      0.156000
     30 H51         0.2820    2.6550   -1.6470 ha        1 39C      0.136500
     31 H2         -0.4270   -1.1990   -0.2020 hn        1 39C      0.466800
     32 H32         3.7730   -0.9580    0.8510 hc        1 39C      0.081700
     33 H223       -0.4750    0.2980    0.5260 hn        1 39C      0.466800
@<TRIPOS>BOND
     1    1    2 1   
     2    1   16 1   
     3    1   31 1   
     4    1   33 1   
     5    2    3 1   
     6    2    9 1   
     7    2   17 1   
     8    3    4 2   
     9    3    5 1   
    10    5    6 1   
    11    5    7 1   
    12    5   32 1   
    13    6   18 1   
    14    6   19 1   
    15    6   20 1   
    16    7    8 1   
    17    7   21 1   
    18    7   22 1   
    19    8   23 1   
    20    9   10 1   
    21    9   24 1   
    22    9   25 1   
    23   10   11 ar  
    24   10   15 ar  
    25   11   12 ar  
    26   11   26 1   
    27   12   13 ar  
    28   12   27 1   
    29   13   14 ar  
    30   13   28 1   
    31   14   15 ar  
    32   14   29 1   
    33   15   30 1   
@<TRIPOS>SUBSTRUCTURE
     1 39C         1 TEMP              0 ****  ****    0 ROOT
