@<TRIPOS>MOLECULE
39C
   33    33     1     0     0
SMALL
bcc


@<TRIPOS>ATOM
      1 N22        -0.0450   -0.2200   -0.2530 n4        1 39C     -0.838600
      2 C8          1.4390   -0.2770   -0.0140 c3        1 39C      0.010500
      3 C9          1.7600   -0.3610    1.4880 c         1 39C      0.580100
      4 O20         0.8780   -0.1230    2.3140 o         1 39C     -0.506100
      5 C10         3.1760   -0.7380    1.8260 c3        1 39C     -0.149700
      6 C11         3.1890   -1.9600    2.7240 c3        1 39C     -0.100100
      7 C12         3.8630    0.4350    2.5350 c3        1 39C      0.134400
      8 O13         3.9200    1.5040    1.6040 oh        1 39C     -0.633800
      9 C7          2.1410    0.9470   -0.6240 c3        1 39C     -0.051100
     10 C6          1.7980    1.1100   -2.0610 ca        1 39C     -0.159300
     11 C5          2.4700    0.3650   -3.0370 ca        1 39C     -0.135500
     12 C4          2.1670    0.5430   -4.3860 ca        1 39C     -0.113500
     13 C3          1.1950    1.4680   -4.7690 ca        1 39C     -0.099000
     14 C2          0.5270    2.2190   -3.8000 ca        1 39C     -0.113500
     15 C1          0.8270    2.0420   -2.4500 ca        1 39C     -0.135500
     16 H28        -0.4440   -1.1600   -0.2250 hn        1 39C      0.466800
     17 H29         1.8180   -1.2130   -0.5250 hx        1 39C      0.121700
     18 H35         2.7500   -2.8390    2.1950 hc        1 39C      0.063033
     19 H36         4.2400   -2.2070    3.0090 hc        1 39C      0.063033
     20 H37         2.6000   -1.7680    3.6540 hc        1 39C      0.063033
     21 H38         4.8960    0.1260    2.8470 h1        1 39C      0.060200
     22 H39         3.2710    0.7450    3.4380 h1        1 39C      0.060200
     23 H40         4.4890    2.1840    1.9860 ho        1 39C      0.433000
     24 H45         1.8830    1.8700   -0.0360 hc        1 39C      0.109700
     25 H46         3.2510    0.7950   -0.4950 hc        1 39C      0.109700
     26 H47         3.2550   -0.3480   -2.7410 ha        1 39C      0.136500
     27 H48         2.7060   -0.0380   -5.1510 ha        1 39C      0.156000
     28 H49         0.9630    1.6150   -5.8360 ha        1 39C      0.159000
     29 H50        -0.2260    2.9640   -4.1030 ha        1 39C      0.156000
     30 H51         0.3320    2.6730   -1.6960 ha        1 39C      0.136500
     31 H2         -0.4830    0.3440    0.4880 hn        1 39C      0.466800
     32 H32         3.7450   -0.9600    0.8790 hc        1 39C      0.081700
     33 H223       -0.2290    0.2130   -1.1690 hn        1 39C      0.466800
@<TRIPOS>BOND
     1    1    2 1   
     2    1   16 1   
     3    1   31 1   
     4    1   33 1   
     5    2    3 1   
     6    2    9 1   
     7    2   17 1   
     8    3    4 2   
     9    3    5 1   
    10    5    6 1   
    11    5    7 1   
    12    5   32 1   
    13    6   18 1   
    14    6   19 1   
    15    6   20 1   
    16    7    8 1   
    17    7   21 1   
    18    7   22 1   
    19    8   23 1   
    20    9   10 1   
    21    9   24 1   
    22    9   25 1   
    23   10   11 ar  
    24   10   15 ar  
    25   11   12 ar  
    26   11   26 1   
    27   12   13 ar  
    28   12   27 1   
    29   13   14 ar  
    30   13   28 1   
    31   14   15 ar  
    32   14   29 1   
    33   15   30 1   
@<TRIPOS>SUBSTRUCTURE
     1 39C         1 TEMP              0 ****  ****    0 ROOT
