@<TRIPOS>MOLECULE
39D
   67    70     1     0     0
SMALL
bcc


@<TRIPOS>ATOM
      1 C18         2.7250   -1.1620    0.5670 c3        1 39D     -0.080900
      2 C17         2.1870    0.2620    0.7030 c3        1 39D     -0.131700
      3 C15         2.5610    1.0430   -0.5430 c         1 39D      0.549100
      4 C19         2.2730   -2.0250    1.7270 c3        1 39D     -0.081900
      5 C20         0.7510   -2.0490    1.8370 c3        1 39D     -0.094700
      6 C21         0.2210   -0.6300    1.9830 c3        1 39D     -0.081900
      7 C22         0.6640    0.2460    0.8270 c3        1 39D     -0.080900
      8 C23         0.3770   -2.9200    3.0410 c3        1 39D      0.099800
      9 C11         4.3460    2.9490   -2.5060 cc        1 39D      0.283800
     10 C12         3.2800    3.2810   -1.5120 c3        1 39D      0.140200
     11 C27         9.5670    2.5350   -5.3170 ca        1 39D     -0.055000
     12 C1          2.3540    5.0770   -0.0390 ca        1 39D     -0.170300
     13 C2          2.6410    5.0930    1.3330 ca        1 39D     -0.138000
     14 C3          1.6640    5.4820    2.2480 ca        1 39D     -0.112500
     15 C4          0.3960    5.8560    1.8010 ca        1 39D     -0.096000
     16 C5          0.1060    5.8410    0.4360 ca        1 39D     -0.112500
     17 C6          1.0810    5.4540   -0.4830 ca        1 39D     -0.138000
     18 N7          5.6430    3.3590   -2.4490 nd        1 39D     -0.604000
     19 C8          6.2440    2.8960   -3.6180 cd        1 39D      0.321800
     20 C9          5.2840    2.1750   -4.3900 cc        1 39D     -0.151600
     21 N10         4.1030    2.2070   -3.6800 na        1 39D     -0.264900
     22 N13         3.3370    2.3170   -0.3360 ny        1 39D     -0.688800
     23 C14         3.4180    4.7330   -1.0190 c3        1 39D     -0.047100
     24 O16         2.2870    0.7380   -1.6950 o         1 39D     -0.424100
     25 N24        -1.0530   -3.3410    3.0620 nz        1 39D     -0.837600
     26 C25         7.6200    3.1490   -4.0040 ca        1 39D     -0.034500
     27 C26         8.2610    2.2850   -4.9060 ca        1 39D     -0.116000
     28 C28        10.2540    3.6650   -4.8350 ca        1 39D     -0.199600
     29 C29         9.6210    4.5240   -3.9220 ca        1 39D     -0.055000
     30 C30         8.3190    4.2650   -3.5090 ca        1 39D     -0.116000
     31 C31        11.6230    3.8450   -5.3130 c         1 39D      0.569700
     32 O32        12.3660    3.0290   -5.8350 o         1 39D     -0.392100
     33 N33        12.2270    5.2330   -5.1880 nz        1 39D     -0.760400
     34 H46         3.8470   -1.1450    0.5410 hc        1 39D      0.080200
     35 H47         2.3660   -1.6040   -0.4020 hc        1 39D      0.080200
     36 H45         2.6260    0.7320    1.6270 hc        1 39D      0.090700
     37 H49         2.6620   -3.0670    1.5680 hc        1 39D      0.070700
     38 H48         2.7140   -1.6390    2.6840 hc        1 39D      0.070700
     39 H50         0.3360   -2.5030    0.8920 hc        1 39D      0.081700
     40 H51         0.5840   -0.1890    2.9500 hc        1 39D      0.070700
     41 H52        -0.9010   -0.6320    2.0100 hc        1 39D      0.070700
     42 H53         0.2840    1.2890    0.9940 hc        1 39D      0.080200
     43 H54         0.2170   -0.1340   -0.1310 hc        1 39D      0.080200
     44 H55         1.0030   -3.8620    3.0340 hx        1 39D      0.122200
     45 H56         0.5830   -2.3600    4.0000 hx        1 39D      0.122200
     46 H41         2.2530    3.1560   -1.9770 hx        1 39D      0.118700
     47 H34         3.6570    4.8620    1.6890 ha        1 39D      0.137000
     48 H35         1.9030    5.5230    3.3230 ha        1 39D      0.161500
     49 H36        -0.3690    6.1860    2.5240 ha        1 39D      0.166000
     50 H37        -0.8880    6.1600    0.0790 ha        1 39D      0.161500
     51 H38         0.8570    5.4780   -1.5610 ha        1 39D      0.137000
     52 H39         5.3800    1.6810   -5.3610 h4        1 39D      0.216000
     53 H40         3.2330    1.8160   -3.9530 hn        1 39D      0.334700
     54 H42         2.9580    2.8100    0.4910 hn        1 39D      0.474800
     55 H43         4.4360    4.9080   -0.5760 hc        1 39D      0.106700
     56 H44         3.3380    5.3900   -1.9300 hc        1 39D      0.106700
     57 H57        -1.2780   -3.8940    2.2260 hn        1 39D      0.469467
     58 H58        -1.2340   -3.9160    3.8960 hn        1 39D      0.469467
     59 H59         7.7370    1.3960   -5.2930 ha        1 39D      0.169000
     60 H61        10.1350    5.4030   -3.5040 ha        1 39D      0.159000
     61 H62         7.8340    4.9470   -2.7900 ha        1 39D      0.169000
     62 H64        12.3790    5.4640   -4.2020 hn        1 39D      0.473133
     63 H63        11.6000    5.9290   -5.6020 hn        1 39D      0.473133
     64 H132        4.3190    2.0790   -0.1490 hn        1 39D      0.474800
     65 H243       -1.6700   -2.5210    3.0870 hn        1 39D      0.469467
     66 H333       13.1330    5.2600   -5.6780 hn        1 39D      0.473133
     67 H60        10.0680    1.8450   -6.0200 ha        1 39D      0.159000
@<TRIPOS>BOND
     1    1    2 1   
     2    1    4 1   
     3    1   34 1   
     4    1   35 1   
     5    2    3 1   
     6    2    7 1   
     7    2   36 1   
     8    3   22 1   
     9    3   24 2   
    10    4    5 1   
    11    4   37 1   
    12    4   38 1   
    13    5    6 1   
    14    5    8 1   
    15    5   39 1   
    16    6    7 1   
    17    6   40 1   
    18    6   41 1   
    19    7   42 1   
    20    7   43 1   
    21    8   25 1   
    22    8   44 1   
    23    8   45 1   
    24    9   10 1   
    25    9   18 2   
    26    9   21 1   
    27   10   22 1   
    28   10   23 1   
    29   10   46 1   
    30   11   27 ar  
    31   11   28 ar  
    32   11   67 1   
    33   12   13 ar  
    34   12   17 ar  
    35   12   23 1   
    36   13   14 ar  
    37   13   47 1   
    38   14   15 ar  
    39   14   48 1   
    40   15   16 ar  
    41   15   49 1   
    42   16   17 ar  
    43   16   50 1   
    44   17   51 1   
    45   18   19 1   
    46   19   20 2   
    47   19   26 1   
    48   20   21 1   
    49   20   52 1   
    50   21   53 1   
    51   22   54 1   
    52   22   64 1   
    53   23   55 1   
    54   23   56 1   
    55   25   57 1   
    56   25   58 1   
    57   25   65 1   
    58   26   27 ar  
    59   26   30 ar  
    60   27   59 1   
    61   28   29 ar  
    62   28   31 1   
    63   29   30 ar  
    64   29   60 1   
    65   30   61 1   
    66   31   32 2   
    67   31   33 1   
    68   33   62 1   
    69   33   63 1   
    70   33   66 1   
@<TRIPOS>SUBSTRUCTURE
     1 39D         1 TEMP              0 ****  ****    0 ROOT
