@<TRIPOS>MOLECULE
39D
   67    70     1     0     0
SMALL
bcc


@<TRIPOS>ATOM
      1 C18         2.7710   -1.1450    0.6370 c3        1 39D     -0.080900
      2 C17         2.2060    0.2700    0.7320 c3        1 39D     -0.131700
      3 C15         2.5730    1.0260   -0.5320 c         1 39D      0.549100
      4 C19         2.3290   -1.9860    1.8170 c3        1 39D     -0.081900
      5 C20         0.8070   -2.0360    1.9200 c3        1 39D     -0.094700
      6 C21         0.2500   -0.6240    2.0250 c3        1 39D     -0.081900
      7 C22         0.6830    0.2290    0.8480 c3        1 39D     -0.080900
      8 C23         0.4420   -2.8810    3.1450 c3        1 39D      0.099800
      9 C11         4.3380    2.9090   -2.5330 cc        1 39D      0.283800
     10 C12         3.2570    3.2490   -1.5580 c3        1 39D      0.140200
     11 C27         9.5920    2.5140   -5.2840 ca        1 39D     -0.055000
     12 C1          2.2840    5.0680   -0.1450 ca        1 39D     -0.170300
     13 C2          2.5570    5.1280    1.2280 ca        1 39D     -0.138000
     14 C3          1.5650    5.5240    2.1230 ca        1 39D     -0.112500
     15 C4          0.2930    5.8620    1.6540 ca        1 39D     -0.096000
     16 C5          0.0170    5.8030    0.2880 ca        1 39D     -0.112500
     17 C6          1.0080    5.4090   -0.6110 ca        1 39D     -0.138000
     18 N7          5.6270    3.3450   -2.4750 nd        1 39D     -0.604000
     19 C8          6.2470    2.8610   -3.6260 cd        1 39D      0.321800
     20 C9          5.3070    2.1010   -4.3860 cc        1 39D     -0.151600
     21 N10         4.1200    2.1310   -3.6880 na        1 39D     -0.264900
     22 N13         3.3210    2.3200   -0.3550 n4        1 39D     -0.688800
     23 C14         3.3630    4.7170   -1.1060 c3        1 39D     -0.046100
     24 O16         2.3140    0.6840   -1.6770 o         1 39D     -0.424100
     25 N24        -0.9810   -3.3290    3.1690 n4        1 39D     -0.837600
     26 C25         7.6220    3.1280   -4.0070 ca        1 39D     -0.034500
     27 C26         8.2870    2.2520   -4.8780 ca        1 39D     -0.116000
     28 C28        10.2540    3.6690   -4.8270 ca        1 39D     -0.199600
     29 C29         9.5970    4.5400   -3.9450 ca        1 39D     -0.055000
     30 C30         8.2960    4.2700   -3.5360 ca        1 39D     -0.116000
     31 C31        11.6230    3.8610   -5.2980 c         1 39D      0.569700
     32 O32        12.3860    3.0440   -5.7900 o         1 39D     -0.392100
     33 N33        12.2020    5.2630   -5.2070 n4        1 39D     -0.760400
     34 H46         2.4270   -1.6200   -0.3210 hc        1 39D      0.080200
     35 H47         3.8930   -1.1090    0.6180 hc        1 39D      0.080200
     36 H45         2.6310    0.7730    1.6460 hc        1 39D      0.090700
     37 H49         2.7380   -3.0240    1.6890 hc        1 39D      0.070700
     38 H48         2.7560   -1.5670    2.7670 hc        1 39D      0.070700
     39 H50         0.4060   -2.5220    0.9850 hc        1 39D      0.081700
     40 H51        -0.8720   -0.6460    2.0450 hc        1 39D      0.070700
     41 H52         0.5970   -0.1500    2.9820 hc        1 39D      0.070700
     42 H53         0.2490   -0.1840   -0.1020 hc        1 39D      0.080200
     43 H54         0.2820    1.2690    0.9850 hc        1 39D      0.080200
     44 H55         0.6310   -2.2920    4.0900 hx        1 39D      0.122200
     45 H56         1.0850   -3.8110    3.1670 hx        1 39D      0.122200
     46 H41         2.2370    3.0910   -2.0280 hx        1 39D      0.118700
     47 H34         3.5740    4.9270    1.6000 ha        1 39D      0.137000
     48 H35         1.7920    5.6000    3.1990 ha        1 39D      0.161500
     49 H36        -0.4830    6.1980    2.3610 ha        1 39D      0.166000
     50 H37        -0.9790    6.0930   -0.0870 ha        1 39D      0.161500
     51 H38         0.7930    5.3970   -1.6910 ha        1 39D      0.137000
     52 H39         5.4210    1.5830   -5.3430 h4        1 39D      0.216000
     53 H40         3.2600    1.7170   -3.9580 hn        1 39D      0.334700
     54 H42         4.3060    2.1080   -0.1510 hn        1 39D      0.474800
     55 H43         4.3730    4.9240   -0.6590 hc        1 39D      0.106700
     56 H44         3.2790    5.3460   -2.0360 hc        1 39D      0.106700
     57 H57        -1.6120   -2.5210    3.1680 hn        1 39D      0.469467
     58 H58        -1.1550   -3.8850    4.0170 hn        1 39D      0.469467
     59 H59         7.7820    1.3430   -5.2460 ha        1 39D      0.169000
     60 H61        10.0920    5.4400   -3.5460 ha        1 39D      0.159000
     61 H62         7.7920    4.9620   -2.8400 ha        1 39D      0.169000
     62 H64        12.3390    5.5240   -4.2260 hn        1 39D      0.473133
     63 H63        13.1120    5.2930   -5.6890 hn        1 39D      0.473133
     64 H132        2.9240    2.8290    0.4540 hn        1 39D      0.474800
     65 H243       -1.1890   -3.9080    2.3470 hn        1 39D      0.469467
     66 H333       11.5650    5.9350   -5.6450 hn        1 39D      0.473133
     67 H60        10.1110    1.8140   -5.9640 ha        1 39D      0.159000
@<TRIPOS>BOND
     1    1    2 1   
     2    1    4 1   
     3    1   34 1   
     4    1   35 1   
     5    2    3 1   
     6    2    7 1   
     7    2   36 1   
     8    3   22 1   
     9    3   24 2   
    10    4    5 1   
    11    4   37 1   
    12    4   38 1   
    13    5    6 1   
    14    5    8 1   
    15    5   39 1   
    16    6    7 1   
    17    6   40 1   
    18    6   41 1   
    19    7   42 1   
    20    7   43 1   
    21    8   25 1   
    22    8   44 1   
    23    8   45 1   
    24    9   10 1   
    25    9   18 2   
    26    9   21 1   
    27   10   22 1   
    28   10   23 1   
    29   10   46 1   
    30   11   27 ar  
    31   11   28 ar  
    32   11   67 1   
    33   12   13 ar  
    34   12   17 ar  
    35   12   23 1   
    36   13   14 ar  
    37   13   47 1   
    38   14   15 ar  
    39   14   48 1   
    40   15   16 ar  
    41   15   49 1   
    42   16   17 ar  
    43   16   50 1   
    44   17   51 1   
    45   18   19 1   
    46   19   20 2   
    47   19   26 1   
    48   20   21 1   
    49   20   52 1   
    50   21   53 1   
    51   22   54 1   
    52   22   64 1   
    53   23   55 1   
    54   23   56 1   
    55   25   57 1   
    56   25   58 1   
    57   25   65 1   
    58   26   27 ar  
    59   26   30 ar  
    60   27   59 1   
    61   28   29 ar  
    62   28   31 1   
    63   29   30 ar  
    64   29   60 1   
    65   30   61 1   
    66   31   32 2   
    67   31   33 1   
    68   33   62 1   
    69   33   63 1   
    70   33   66 1   
@<TRIPOS>SUBSTRUCTURE
     1 39D         1 TEMP              0 ****  ****    0 ROOT
