@<TRIPOS>MOLECULE
39F
   69    72     1     0     0
SMALL
bcc


@<TRIPOS>ATOM
      1 C13        -0.3320   -1.0580    1.6890 cc        1 39F      0.373800
      2 C18         1.6830    2.2930    6.6850 c3        1 39F     -0.085400
      3 C17         0.7510    0.1160    5.9160 c         1 39F      0.560100
      4 C16        -1.3190   -0.6770    3.6240 cd        1 39F      0.299800
      5 C15        -1.7130   -0.7980    1.4190 cd        1 39F     -0.070200
      6 C19         3.1650    0.6060    5.5560 c3        1 39F     -0.079400
      7 C20         2.3000    3.5840    6.2080 c3        1 39F     -0.104100
      8 C21         3.3030   -0.4200    4.4500 c3        1 39F     -0.095400
      9 C22         1.7630    1.2030    5.6160 c3        1 39F     -0.125700
     10 C23         4.7330   -0.5070    3.9540 c3        1 39F     -0.102400
     11 C24        -3.0300   -0.3880    5.4680 c3        1 39F     -0.057100
     12 C11        -3.2130   -0.2830    6.9400 ca        1 39F     -0.169300
     13 C12         2.9180   -1.3060   -0.1880 ca        1 39F      0.008000
     14 C1         -3.6450   -0.0900    9.6970 ca        1 39F     -0.092000
     15 C2         -3.6210    1.0640    8.9120 ca        1 39F     -0.111500
     16 C3         -3.4560   -1.3400    9.1050 ca        1 39F     -0.111500
     17 C4          1.1910   -2.7030   -1.3130 ca        1 39F     -0.012000
     18 C5          0.3040   -2.3340   -0.3320 ca        1 39F     -0.178000
     19 C6         -3.4060    0.9700    7.5380 ca        1 39F     -0.132000
     20 C7         -3.2430   -1.4380    7.7310 ca        1 39F     -0.132000
     21 C8          1.9610   -0.9220    0.7960 ca        1 39F     -0.152000
     22 C9          2.4990   -2.1970   -1.2640 ca        1 39F     -0.229000
     23 C10         0.6820   -1.4280    0.7090 ca        1 39F     -0.045500
     24 C14         3.6650   -2.3300   -2.0970 cc        1 39F      0.230900
     25 C25         4.8350   -1.6290    2.9250 c3        1 39F      0.094800
     26 C26        -1.5510   -0.5930    5.1030 c3        1 39F      0.127200
     27 N27         4.7060   -1.6290   -1.4160 na        1 39F     -0.015200
     28 N28        -2.3180   -0.5510    2.6490 na        1 39F     -0.269900
     29 N29         4.2350   -0.9590   -0.3360 nc        1 39F     -0.464400
     30 N30        -0.1100   -0.9590    3.0580 nc        1 39F     -0.651000
     31 N31         3.8100   -3.0550   -3.2280 nv        1 39F     -0.831600
     32 N32         5.9680   -1.4540    1.9750 nz        1 39F     -0.827600
     33 N33        -0.6970    0.5090    5.6910 ny        1 39F     -0.682800
     34 O34         0.9530   -1.0100    6.3380 o         1 39F     -0.406100
     35 Cl1        -2.5380   -0.7210   -0.0240 cl        1 39F      0.054600
     36 H1          0.6140    2.4880    6.9620 hc        1 39F      0.058200
     37 H2          2.2090    1.9420    7.6130 hc        1 39F      0.058200
     38 H3          3.8820    1.4560    5.3910 hc        1 39F      0.081200
     39 H4          3.4200    0.1370    6.5430 hc        1 39F      0.081200
     40 H5          3.3900    3.4580    5.9980 hc        1 39F      0.058367
     41 H6          1.8000    3.9520    5.2800 hc        1 39F      0.058367
     42 H7          2.1900    4.3660    7.0010 hc        1 39F      0.058367
     43 H8          2.6310   -0.1520    3.5900 hc        1 39F      0.069200
     44 H9          2.9680   -1.4240    4.8300 hc        1 39F      0.069200
     45 H10         1.5200    1.6490    4.6070 hc        1 39F      0.096700
     46 H11         5.0260    0.4810    3.5080 hc        1 39F      0.071700
     47 H12         5.4260   -0.7100    4.8130 hc        1 39F      0.071700
     48 H13        -3.5940   -1.2820    5.0810 hc        1 39F      0.087700
     49 H14        -3.4410    0.5270    4.9630 hc        1 39F      0.087700
     50 H15        -3.8260   -0.0150   10.7820 ha        1 39F      0.164000
     51 H16        -3.7910    2.0490    9.3750 ha        1 39F      0.160000
     52 H17        -3.4900   -2.2530    9.7220 ha        1 39F      0.160000
     53 H18         0.8900   -3.3840   -2.1230 ha        1 39F      0.149000
     54 H19        -0.7190   -2.7400   -0.3350 ha        1 39F      0.152000
     55 H20        -3.4380    1.8800    6.9200 ha        1 39F      0.136500
     56 H21        -3.1160   -2.4290    7.2660 ha        1 39F      0.136500
     57 H22         2.2400   -0.1970    1.5720 ha        1 39F      0.131000
     58 H23         3.8850   -1.6740    2.3070 hx        1 39F      0.120200
     59 H24         4.9680   -2.6210    3.4460 hx        1 39F      0.120200
     60 H25        -1.1950   -1.5630    5.5820 hx        1 39F      0.147700
     61 H26         5.4290   -1.1650   -1.9330 hn        1 39F      0.305700
     62 H27        -3.2850   -0.4000    2.8060 hn        1 39F      0.332700
     63 H29         3.0610   -3.6380   -3.5190 hn        1 39F      0.464800
     64 H30         4.6340   -3.0150   -3.7780 hn        1 39F      0.464800
     65 H31         5.9440   -2.2010    1.2710 hn        1 39F      0.466467
     66 H32         6.8630   -1.4800    2.4700 hn        1 39F      0.466467
     67 H34        -0.7320    1.3300    5.0800 hn        1 39F      0.464800
     68 H323        5.8800   -0.5500    1.4890 hn        1 39F      0.466467
     69 H332       -1.1070    0.7620    6.6060 hn        1 39F      0.464800
@<TRIPOS>BOND
     1    1    5 2   
     2    1   23 1   
     3    1   30 1   
     4    2    7 1   
     5    2    9 1   
     6    2   36 1   
     7    2   37 1   
     8    3    9 1   
     9    3   33 1   
    10    3   34 2   
    11    4   26 1   
    12    4   28 1   
    13    4   30 2   
    14    5   28 1   
    15    5   35 1   
    16    6    8 1   
    17    6    9 1   
    18    6   38 1   
    19    6   39 1   
    20    7   40 1   
    21    7   41 1   
    22    7   42 1   
    23    8   10 1   
    24    8   43 1   
    25    8   44 1   
    26    9   45 1   
    27   10   25 1   
    28   10   46 1   
    29   10   47 1   
    30   11   12 1   
    31   11   26 1   
    32   11   48 1   
    33   11   49 1   
    34   12   19 ar  
    35   12   20 ar  
    36   13   21 ar  
    37   13   22 ar  
    38   13   29 2   
    39   14   15 ar  
    40   14   16 ar  
    41   14   50 1   
    42   15   19 ar  
    43   15   51 1   
    44   16   20 ar  
    45   16   52 1   
    46   17   18 ar  
    47   17   22 ar  
    48   17   53 1   
    49   18   23 ar  
    50   18   54 1   
    51   19   55 1   
    52   20   56 1   
    53   21   23 ar  
    54   21   57 1   
    55   22   24 2   
    56   24   27 1   
    57   24   31 1   
    58   25   32 1   
    59   25   58 1   
    60   25   59 1   
    61   26   33 1   
    62   26   60 1   
    63   27   29 1   
    64   27   61 1   
    65   28   62 1   
    66   31   63 1   
    67   31   64 1   
    68   32   65 1   
    69   32   66 1   
    70   32   68 1   
    71   33   67 1   
    72   33   69 1   
@<TRIPOS>SUBSTRUCTURE
     1 39F         1 TEMP              0 ****  ****    0 ROOT
