@<TRIPOS>MOLECULE
39F
   69    72     1     0     0
SMALL
bcc


@<TRIPOS>ATOM
      1 C13        -0.3320   -1.0610    1.6940 cc        1 39F      0.373800
      2 C18         1.6450    2.3020    6.6860 c3        1 39F     -0.085400
      3 C17         0.7500    0.1070    5.9230 c         1 39F      0.560100
      4 C16        -1.3160   -0.7100    3.6360 cd        1 39F      0.299800
      5 C15        -1.7170   -0.8220    1.4320 cd        1 39F     -0.070200
      6 C19         3.1530    0.6430    5.5510 c3        1 39F     -0.079400
      7 C20         2.2350    3.6040    6.2060 c3        1 39F     -0.104100
      8 C21         3.3050   -0.3820    4.4450 c3        1 39F     -0.095400
      9 C22         1.7400    1.2130    5.6180 c3        1 39F     -0.125700
     10 C23         4.7330   -0.4380    3.9390 c3        1 39F     -0.102400
     11 C24        -3.0230   -0.4660    5.4900 c3        1 39F     -0.057100
     12 C11        -3.2010   -0.3760    6.9640 ca        1 39F     -0.169300
     13 C12         2.9140   -1.2440   -0.1980 ca        1 39F      0.008000
     14 C1         -3.6220   -0.2110    9.7240 ca        1 39F     -0.092000
     15 C2         -3.6240    0.9490    8.9470 ca        1 39F     -0.111500
     16 C3         -3.4130   -1.4530    9.1220 ca        1 39F     -0.111500
     17 C4          1.2040   -2.6590   -1.3260 ca        1 39F     -0.012000
     18 C5          0.3160   -2.3120   -0.3390 ca        1 39F     -0.178000
     19 C6         -3.4140    0.8690    7.5720 ca        1 39F     -0.132000
     20 C7         -3.2050   -1.5370    7.7460 ca        1 39F     -0.132000
     21 C8          1.9550   -0.8820    0.7920 ca        1 39F     -0.152000
     22 C9          2.5050   -2.1350   -1.2790 ca        1 39F     -0.229000
     23 C10         0.6840   -1.4070    0.7070 ca        1 39F     -0.045500
     24 C14         3.6690   -2.2430   -2.1170 cc        1 39F      0.230900
     25 C25         4.8500   -1.5540    2.9050 c3        1 39F      0.094800
     26 C26        -1.5420   -0.6400    5.1160 c3        1 39F      0.127200
     27 N27         4.7020   -1.5310   -1.4360 na        1 39F     -0.015200
     28 N28        -2.3210   -0.5930    2.6670 na        1 39F     -0.269900
     29 N29         4.2250   -0.8760   -0.3490 nc        1 39F     -0.464400
     30 N30        -0.1040   -0.9680    3.0630 nc        1 39F     -0.651000
     31 N31         3.8210   -2.9580   -3.2550 nh        1 39F     -0.831600
     32 N32         5.9770   -1.3550    1.9520 n4        1 39F     -0.827600
     33 N33        -0.7060    0.4740    5.7080 n4        1 39F     -0.682800
     34 O34         0.9750   -1.0160    6.3410 o         1 39F     -0.406100
     35 CL1        -2.5500   -0.7470   -0.0070 cl        1 39F      0.054600
     36 H1          0.5740    2.4770    6.9700 hc        1 39F      0.058200
     37 H2          2.1830    1.9620    7.6120 hc        1 39F      0.058200
     38 H3          3.8530    1.5050    5.3830 hc        1 39F      0.081200
     39 H4          3.4210    0.1780    6.5370 hc        1 39F      0.081200
     40 H5          3.3260    3.4980    5.9900 hc        1 39F      0.058367
     41 H6          2.1140    4.3850    6.9990 hc        1 39F      0.058367
     42 H7          1.7230    3.9620    5.2800 hc        1 39F      0.058367
     43 H8          2.6210   -0.1280    3.5900 hc        1 39F      0.069200
     44 H9          2.9950   -1.3920    4.8270 hc        1 39F      0.069200
     45 H10         1.4840    1.6540    4.6100 hc        1 39F      0.096700
     46 H11         5.0030    0.5580    3.4930 hc        1 39F      0.071700
     47 H12         5.4370   -0.6280    4.7920 hc        1 39F      0.071700
     48 H13        -3.5720   -1.3670    5.0980 hc        1 39F      0.087700
     49 H14        -3.4540    0.4450    4.9940 hc        1 39F      0.087700
     50 H15        -3.8000   -0.1480   10.8100 ha        1 39F      0.164000
     51 H16        -3.8100    1.9270    9.4190 ha        1 39F      0.160000
     52 H17        -3.4260   -2.3710    9.7320 ha        1 39F      0.160000
     53 H18         0.9100   -3.3400   -2.1400 ha        1 39F      0.149000
     54 H19        -0.7010   -2.7330   -0.3410 ha        1 39F      0.152000
     55 H20        -3.4670    1.7830    6.9610 ha        1 39F      0.136500
     56 H21        -3.0610   -2.5210    7.2730 ha        1 39F      0.136500
     57 H22         2.2260   -0.1590    1.5730 ha        1 39F      0.131000
     58 H23         5.0040   -2.5450    3.4230 hx        1 39F      0.120200
     59 H24         3.9000   -1.6140    2.2910 hx        1 39F      0.120200
     60 H25        -1.1650   -1.6060    5.5880 hx        1 39F      0.147700
     61 H26         5.4150   -1.0520   -1.9520 hn        1 39F      0.305700
     62 H27        -3.2900   -0.4580    2.8290 hn        1 39F      0.332700
     63 H29         4.6410   -2.9010   -3.8070 hn        1 39F      0.464800
     64 H30         3.0790   -3.5500   -3.5460 hn        1 39F      0.464800
     65 H31         6.8740   -1.3690    2.4430 hn        1 39F      0.466467
     66 H32         5.9620   -2.1000    1.2440 hn        1 39F      0.466467
     67 H34        -1.1170    0.7130    6.6280 hn        1 39F      0.464800
     68 H323        5.8710   -0.4520    1.4700 hn        1 39F      0.466467
     69 H332       -0.7600    1.2980    5.1030 hn        1 39F      0.464800
@<TRIPOS>BOND
     1    1    5 2   
     2    1   23 1   
     3    1   30 1   
     4    2    7 1   
     5    2    9 1   
     6    2   36 1   
     7    2   37 1   
     8    3    9 1   
     9    3   33 1   
    10    3   34 2   
    11    4   26 1   
    12    4   28 1   
    13    4   30 2   
    14    5   28 1   
    15    5   35 1   
    16    6    8 1   
    17    6    9 1   
    18    6   38 1   
    19    6   39 1   
    20    7   40 1   
    21    7   41 1   
    22    7   42 1   
    23    8   10 1   
    24    8   43 1   
    25    8   44 1   
    26    9   45 1   
    27   10   25 1   
    28   10   46 1   
    29   10   47 1   
    30   11   12 1   
    31   11   26 1   
    32   11   48 1   
    33   11   49 1   
    34   12   19 ar  
    35   12   20 ar  
    36   13   21 ar  
    37   13   22 ar  
    38   13   29 2   
    39   14   15 ar  
    40   14   16 ar  
    41   14   50 1   
    42   15   19 ar  
    43   15   51 1   
    44   16   20 ar  
    45   16   52 1   
    46   17   18 ar  
    47   17   22 ar  
    48   17   53 1   
    49   18   23 ar  
    50   18   54 1   
    51   19   55 1   
    52   20   56 1   
    53   21   23 ar  
    54   21   57 1   
    55   22   24 2   
    56   24   27 1   
    57   24   31 1   
    58   25   32 1   
    59   25   58 1   
    60   25   59 1   
    61   26   33 1   
    62   26   60 1   
    63   27   29 1   
    64   27   61 1   
    65   28   62 1   
    66   31   63 1   
    67   31   64 1   
    68   32   65 1   
    69   32   66 1   
    70   32   68 1   
    71   33   67 1   
    72   33   69 1   
@<TRIPOS>SUBSTRUCTURE
     1 39F         1 TEMP              0 ****  ****    0 ROOT
