@<TRIPOS>MOLECULE
39G
   57    55     1     0     0
SMALL
bcc


@<TRIPOS>ATOM
      1 C1          1.0660    1.3760   -2.5830 c3        1 39G     -0.220000
      2 C2          2.2100    0.4790   -2.2110 c3        1 39G     -0.220000
      3 C3          2.8490   -1.4800    1.0180 c2        1 39G     -0.180000
      4 C9          3.5760   -3.1080    2.6220 c2        1 39G      0.203000
      5 C10         3.0340   -2.9750    1.1910 c3        1 39G     -0.112000
      6 C11         3.9780   -3.5750    0.1560 c3        1 39G     -0.229000
      7 C12         3.5750   -3.5420   -1.2270 c1        1 39G     -0.013000
      8 C13         4.3660   -4.5640    4.4870 c1        1 39G      0.437000
      9 C14         3.9030   -4.3390    3.2560 c2        1 39G     -0.523000
     10 C15         3.0830    1.6750    2.4110 c2        1 39G      0.363000
     11 C19         3.1720    5.2120    3.3620 c2        1 39G     -0.003000
     12 C20         2.9590    6.5830    2.9820 c2        1 39G     -1.145000
     13 C21         3.2020    6.9920    1.6080 c2        1 39G     -0.403000
     14 C22         4.3610    6.9370    0.9810 c1        1 39G      0.225000
     15 C30         5.4650    9.2440    3.4920 c3        1 39G     -0.165000
     16 C4          3.2150   -0.8530    2.1630 c2        1 39G      0.057000
     17 C5          3.3720    0.3950    2.8850 c2        1 39G     -0.334000
     18 C6          3.8900    0.0040    4.1940 c2        1 39G      0.030000
     19 N7          4.0560   -1.3210    4.3330 n2        1 39G     -0.094000
     20 N8          3.6680   -1.8780    3.1480 na        1 39G     -0.045000
     21 O16         2.6070    1.7080    1.1160 os        1 39G     -0.139000
     22 N17         3.2460    2.8130    3.1320 na        1 39G     -0.242000
     23 C18         2.9430    4.1060    2.6060 c2        1 39G     -0.033000
     24 C23         2.3920    4.0990    1.2550 c2        1 39G     -0.134000
     25 O26         2.0800    8.8340    3.5650 o         1 39G     -0.486400
     26 O27         2.3660    7.2230    5.2880 o         1 39G     -0.486400
     27 N28         4.7790    8.5260    4.5230 n2        1 39G     -0.339000
     28 C29         5.2400    8.4090    5.7100 c2        1 39G     -0.052000
     29 H1          2.6410    0.7780   -1.2220 hc        1 39G      0.073667
     30 H2          1.4060    2.4390   -2.6660 hc        1 39G      0.073667
     31 H3          0.6340    1.0740   -3.5690 hc        1 39G      0.073667
     32 H4          0.2540    1.3250   -1.8170 hc        1 39G      0.073667
     33 H5          3.0210    0.5340   -2.9770 hc        1 39G      0.073667
     34 H6          2.4740   -1.0320    0.0960 ha        1 39G      0.200000
     35 H7          1.8710   -0.5840   -2.1390 hc        1 39G      0.073667
     36 H8          2.0340   -3.4930    1.1470 hc        1 39G      0.169000
     37 H9          4.9820   -3.0510    0.1930 hc        1 39G      0.167500
     38 H10         4.1810   -4.6570    0.4140 hc        1 39G      0.167500
     39 H11         2.6320   -3.0430   -1.4920 ha        1 39G      0.060000
     40 H12         3.7440   -5.2540    2.6330 ha        1 39G      0.230000
     41 H13         3.5340    5.0860    4.4060 ha        1 39G      0.132000
     42 H14         2.3370    7.4170    1.0510 ha        1 39G      0.191000
     43 H15         2.0970    5.0660    0.8180 ha        1 39G      0.192000
     44 H16         1.5980    4.6890   -1.5440 ha        1 39G      0.001500
     45 H17         1.4500    4.7540   -2.2020 ha        1 39G      0.001500
     46 H18         1.8440    2.7800   -0.4340 h4        1 39G      0.214000
     47 H19         4.8320   10.1250    3.1930 h1        1 39G      0.108333
     48 H20         5.5760    8.5650    2.6010 h1        1 39G      0.108333
     49 H21         6.4810    9.6170    3.7910 h1        1 39G      0.108333
     50 H22         4.1380    0.6800    5.0230 h4        1 39G      0.197000
     51 H23         3.5820    2.7510    4.0690 hn        1 39G      0.265000
     52 H24         3.8030    5.5960    6.6940 ha        1 39G      0.001500
     53 H25         3.3030    5.8980    7.0390 ha        1 39G      0.001500
     54 H26         6.1990    8.8270    6.0720 h4        1 39G      0.143000
     55 C24         2.2440    2.9500    0.5810 c2        1 39G     -0.055000
     56 H281        4.6360    7.8440    6.4510 h4        1 39G      0.143000
     57 S25         2.5530    7.6180    3.9810 s4        1 39G      2.094800
@<TRIPOS>BOND
     1    1    2 1   
     2    1   30 1   
     3    1   31 1   
     4    1   32 1   
     5    2   29 1   
     6    2   33 1   
     7    2   35 1   
     8    3    5 1   
     9    3   16 1   
    10    3   34 1   
    11    4    5 1   
    12    4    9 1   
    13    4   20 1   
    14    5    6 1   
    15    5   36 1   
    16    6    7 1   
    17    6   37 1   
    18    6   38 1   
    19    7   39 1   
    20    8    9 1   
    21    9   40 1   
    22   10   17 1   
    23   10   21 1   
    24   10   22 1   
    25   11   12 1   
    26   11   23 1   
    27   11   41 1   
    28   12   13 1   
    29   12   57 1   
    30   13   14 1   
    31   13   42 1   
    32   15   27 1   
    33   15   47 1   
    34   15   48 1   
    35   15   49 1   
    36   16   17 1   
    37   16   20 1   
    38   17   18 1   
    39   18   19 1   
    40   18   50 1   
    41   19   20 1   
    42   21   55 1   
    43   22   23 1   
    44   22   51 1   
    45   23   24 1   
    46   24   43 1   
    47   24   55 1   
    48   25   57 1   
    49   26   57 1   
    50   27   28 1   
    51   28   54 1   
    52   28   56 1   
    53   44   45 1   
    54   46   55 1   
    55   52   53 1   
@<TRIPOS>SUBSTRUCTURE
     1 39G         1 TEMP              0 ****  ****    0 ROOT
