@<TRIPOS>MOLECULE
39G
   57    58     1     0     0
SMALL
bcc


@<TRIPOS>ATOM
      1 C1         -0.2600   -0.1090    1.9030 c3        1 39G     -0.094100
      2 C2          1.0670   -0.1100    1.1880 c3        1 39G     -0.076400
      3 C3          2.2010    0.1900    2.1520 c3        1 39G     -0.042100
      4 C9          3.7490   -2.2910    1.1470 ca        1 39G     -0.016200
      5 C10         3.5540   -2.8400    2.4290 ca        1 39G     -0.111000
      6 C11         3.1260   -4.1600    2.5490 ca        1 39G     -0.120000
      7 C12         2.9030   -4.9390    1.4140 ca        1 39G     -0.106000
      8 C13         3.1120   -4.3980    0.1460 ca        1 39G     -0.120000
      9 C14         3.5370   -3.0790    0.0000 ca        1 39G     -0.111000
     10 C15         4.0740    2.7040    1.4010 c         1 39G      0.750700
     11 C19         3.7620    5.6590    1.1960 ca        1 39G     -0.017000
     12 C20         3.6440    7.0370    1.4720 ca        1 39G     -0.555500
     13 C21         4.8250    7.7650    1.7360 ca        1 39G     -0.005000
     14 C22         6.0590    7.1410    1.7070 ca        1 39G     -0.135000
     15 C30         2.3540    7.1630    4.4730 c3        1 39G      0.086100
     16 C4          3.5140    0.1990    1.4700 cc        1 39G      0.036400
     17 C5          4.3360    1.3070    1.1260 cd        1 39G     -0.377900
     18 C6          5.4780    0.7240    0.4460 cd        1 39G      0.329200
     19 N7          5.3540   -0.6180    0.3930 nc        1 39G     -0.470800
     20 N8          4.1930   -0.9340    1.0070 na        1 39G      0.171300
     21 O16         3.0300    3.1330    1.9400 o         1 39G     -0.641100
     22 N17         5.0810    3.6150    1.0310 n         1 39G     -0.482100
     23 C18         5.0000    4.9950    1.2330 ca        1 39G      0.061600
     24 C23         6.1780    5.7660    1.4670 ca        1 39G      0.018700
     25 O26         2.1930    9.0550    1.8050 o         1 39G     -0.445900
     26 O27         1.2600    7.1760    0.6700 o         1 39G     -0.445900
     27 N28         1.4300    6.9570    3.3640 n3        1 39G     -0.913200
     28 C29         1.0190    5.5630    3.2190 c3        1 39G      0.086100
     29 H1         -1.0840   -0.3260    1.1810 hc        1 39G      0.039700
     30 H2         -0.2790   -0.8870    2.7040 hc        1 39G      0.039700
     31 H3         -0.4550    0.8850    2.3740 hc        1 39G      0.039700
     32 H4          1.0570    0.6570    0.3700 hc        1 39G      0.051700
     33 H5          1.2370   -1.1110    0.7070 hc        1 39G      0.051700
     34 H6          2.2030   -0.5740    2.9770 hc        1 39G      0.079200
     35 H7          2.0410    1.2010    2.6200 hc        1 39G      0.079200
     36 H8          3.7450   -2.2440    3.3350 ha        1 39G      0.150000
     37 H9          2.9710   -4.5900    3.5510 ha        1 39G      0.149000
     38 H10         2.5680   -5.9820    1.5200 ha        1 39G      0.149000
     39 H11         2.9470   -5.0150   -0.7510 ha        1 39G      0.149000
     40 H12         3.7130   -2.6680   -1.0060 ha        1 39G      0.150000
     41 H13         2.8420    5.0880    0.9480 ha        1 39G      0.191000
     42 H14         4.7600    8.8470    1.9580 ha        1 39G      0.170000
     43 H15         6.9730    7.7350    1.8880 ha        1 39G      0.173000
     44 H16         8.3180    5.8810    1.7030 hc        1 39G      0.076700
     45 H17         7.5700    4.3110    2.2140 hc        1 39G      0.076700
     46 H18         7.7420    4.7100    0.4480 hc        1 39G      0.076700
     47 H19         1.9130    6.8240    5.4490 h1        1 39G      0.084867
     48 H20         3.2940    6.5770    4.2900 h1        1 39G      0.084867
     49 H21         2.5970    8.2570    4.5490 h1        1 39G      0.084867
     50 H22         6.3400    1.2270    0.0050 h4        1 39G      0.043100
     51 H23         5.9590    3.2540    0.7310 hn        1 39G      0.335500
     52 H24         0.4770    5.1950    4.1300 h1        1 39G      0.084867
     53 H25         0.3360    5.4770    2.3300 h1        1 39G      0.084867
     54 H26         1.9210    4.9090    3.0570 h1        1 39G      0.084867
     55 C24         7.5170    5.1380    1.4590 c3        1 39G     -0.092800
     56 H281        0.6040    7.5230    3.5250 hn        1 39G      0.411800
     57 S25         2.2300    7.7370    1.4480 s4        1 39G      1.648300
@<TRIPOS>BOND
     1    1    2 1   
     2    1   29 1   
     3    1   30 1   
     4    1   31 1   
     5    2    3 1   
     6    2   32 1   
     7    2   33 1   
     8    3   16 1   
     9    3   34 1   
    10    3   35 1   
    11    4    5 ar  
    12    4    9 ar  
    13    4   20 1   
    14    5    6 ar  
    15    5   36 1   
    16    6    7 ar  
    17    6   37 1   
    18    7    8 ar  
    19    7   38 1   
    20    8    9 ar  
    21    8   39 1   
    22    9   40 1   
    23   10   17 1   
    24   10   21 2   
    25   10   22 1   
    26   11   12 ar  
    27   11   23 ar  
    28   11   41 1   
    29   12   13 ar  
    30   12   57 1   
    31   13   14 ar  
    32   13   42 1   
    33   14   24 ar  
    34   14   43 1   
    35   15   27 1   
    36   15   47 1   
    37   15   48 1   
    38   15   49 1   
    39   16   17 2   
    40   16   20 1   
    41   17   18 1   
    42   18   19 2   
    43   18   50 1   
    44   19   20 1   
    45   22   23 1   
    46   22   51 1   
    47   23   24 ar  
    48   24   55 1   
    49   25   57 1   
    50   26   57 1   
    51   27   28 1   
    52   27   56 1   
    53   28   52 1   
    54   28   53 1   
    55   28   54 1   
    56   44   55 1   
    57   45   55 1   
    58   46   55 1   
@<TRIPOS>SUBSTRUCTURE
     1 39G         1 TEMP              0 ****  ****    0 ROOT
