@<TRIPOS>MOLECULE
39H
   51    55     1     0     0
SMALL
bcc


@<TRIPOS>ATOM
      1 O16         2.6820    2.0480   -3.3160 o         1 39H     -0.565500
      2 C9          2.9380    1.4630   -2.2560 c         1 39H      0.691100
      3 N10         2.7790    2.1700   -1.0140 n         1 39H     -0.201800
      4 C17         2.2890    3.5470   -1.0610 c3        1 39H      0.083300
      5 N11         3.0290    1.6310    0.1630 nc        1 39H     -0.483300
      6 C8          3.4130    0.0710   -2.1540 ca        1 39H     -0.133600
      7 C15         3.5960   -0.6900   -3.3160 ca        1 39H     -0.056000
      8 C14         4.0480   -2.0020   -3.2140 ca        1 39H     -0.115000
      9 C13         4.3190   -2.5570   -1.9580 ca        1 39H     -0.082000
     10 C12         4.1400   -1.8070   -0.7990 ca        1 39H     -0.132000
     11 C7          3.6810   -0.4870   -0.8850 ca        1 39H     -0.116900
     12 C6          3.4560    0.3790    0.2680 cd        1 39H      0.327900
     13 C5          3.7050   -0.2050    1.6250 c3        1 39H     -0.162700
     14 C1          3.2090    0.6590    2.7490 c         1 39H      0.575100
     15 O1          2.2560    0.4660    3.4840 o         1 39H     -0.410100
     16 N1          3.9910    1.9340    3.0210 n4        1 39H     -0.538200
     17 C23         5.2150    1.6570    3.7790 ca        1 39H     -0.086400
     18 C18         6.4500    1.6160    3.0900 ca        1 39H     -0.114000
     19 C22         5.1200    1.4580    5.1690 ca        1 39H     -0.058000
     20 C21         6.2950    1.2140    5.8660 ca        1 39H     -0.065800
     21 C26         6.6370    0.9660    7.2500 cc        1 39H     -0.134400
     22 C30         5.8060    0.8930    8.4610 c3        1 39H     -0.014200
     23 C29         6.5850    0.2390    9.5960 c3        1 39H     -0.083400
     24 C28         8.0040    0.7630    9.7220 c3        1 39H     -0.080400
     25 C27         8.8390    0.5160    8.4710 c3        1 39H     -0.030200
     26 C25         8.0100    0.7980    7.2910 cd        1 39H      0.078900
     27 O24         8.5970    0.9190    6.0180 os        1 39H     -0.163200
     28 C20         7.5430    1.1750    5.1500 ca        1 39H      0.094100
     29 C19         7.6350    1.3730    3.7760 ca        1 39H     -0.086000
     30 H1          1.6130    3.7650   -0.1940 h1        1 39H      0.071033
     31 H2          3.1620    4.2520   -1.0470 h1        1 39H      0.071033
     32 H3          1.7180    3.6820   -2.0190 h1        1 39H      0.071033
     33 H4          3.3770   -0.2370   -4.2980 ha        1 39H      0.176000
     34 H5          4.1910   -2.6070   -4.1240 ha        1 39H      0.161000
     35 H6          4.6780   -3.5970   -1.8870 ha        1 39H      0.155000
     36 H7          4.3600   -2.2600    0.1790 ha        1 39H      0.135000
     37 H8          4.8060   -0.4030    1.7520 hc        1 39H      0.122200
     38 H9          3.1540   -1.1880    1.7020 hc        1 39H      0.122200
     39 H10         4.2380    2.3870    2.1330 hn        1 39H      0.468800
     40 H11         6.4940    1.7830    2.0010 ha        1 39H      0.155000
     41 H12         4.1550    1.4900    5.7020 ha        1 39H      0.167000
     42 H13         4.8700    0.3070    8.2620 hc        1 39H      0.060700
     43 H14         5.4950    1.9310    8.7630 hc        1 39H      0.060700
     44 H15         6.6160   -0.8700    9.4300 hc        1 39H      0.058200
     45 H16         6.0410    0.4200   10.5600 hc        1 39H      0.058200
     46 H17         7.9750    1.8650    9.9340 hc        1 39H      0.062200
     47 H18         8.5080    0.2650   10.5920 hc        1 39H      0.062200
     48 H19         9.1840   -0.5530    8.4320 hc        1 39H      0.084700
     49 H20         9.7550    1.1650    8.4760 hc        1 39H      0.084700
     50 H21         8.6050    1.3420    3.2550 ha        1 39H      0.184000
     51 H121        3.4010    2.5760    3.5680 hn        1 39H      0.468800
@<TRIPOS>BOND
     1    1    2 2   
     2    2    3 1   
     3    2    6 1   
     4    3    4 1   
     5    3    5 1   
     6    4   30 1   
     7    4   31 1   
     8    4   32 1   
     9    5   12 2   
    10    6    7 ar  
    11    6   11 ar  
    12    7    8 ar  
    13    7   33 1   
    14    8    9 ar  
    15    8   34 1   
    16    9   10 ar  
    17    9   35 1   
    18   10   11 ar  
    19   10   36 1   
    20   11   12 1   
    21   12   13 1   
    22   13   14 1   
    23   13   37 1   
    24   13   38 1   
    25   14   15 2   
    26   14   16 1   
    27   16   17 1   
    28   16   39 1   
    29   16   51 1   
    30   17   18 ar  
    31   17   19 ar  
    32   18   29 ar  
    33   18   40 1   
    34   19   20 ar  
    35   19   41 1   
    36   20   21 1   
    37   20   28 ar  
    38   21   22 1   
    39   21   26 2   
    40   22   23 1   
    41   22   42 1   
    42   22   43 1   
    43   23   24 1   
    44   23   44 1   
    45   23   45 1   
    46   24   25 1   
    47   24   46 1   
    48   24   47 1   
    49   25   26 1   
    50   25   48 1   
    51   25   49 1   
    52   26   27 1   
    53   27   28 1   
    54   28   29 ar  
    55   29   50 1   
@<TRIPOS>SUBSTRUCTURE
     1 39H         1 TEMP              0 ****  ****    0 ROOT
