@<TRIPOS>MOLECULE
39H
   50    54     1     0     0
SMALL
bcc


@<TRIPOS>ATOM
      1 O16         0.2310   -0.0150    0.1240 o         1 39H     -0.609500
      2 C9          1.4610   -0.1070   -0.0300 c         1 39H      0.683100
      3 N10         2.2920   -0.3270    1.1060 n         1 39H     -0.207800
      4 C17         1.6290   -0.4750    2.3970 c3        1 39H      0.097300
      5 N11         3.6120   -0.4460    1.0470 nc        1 39H     -0.425300
      6 C8          2.1530    0.0030   -1.3290 ca        1 39H     -0.139600
      7 C15         1.4160    0.2220   -2.5010 ca        1 39H     -0.066000
      8 C14         2.0770    0.3190   -3.7190 ca        1 39H     -0.135000
      9 C13         3.4700    0.1950   -3.7740 ca        1 39H     -0.096000
     10 C12         4.2080   -0.0230   -2.6160 ca        1 39H     -0.128000
     11 C7          3.5570   -0.1210   -1.3780 ca        1 39H     -0.106900
     12 C6          4.2500   -0.3490   -0.1090 cd        1 39H      0.344900
     13 C5          5.7390   -0.5010   -0.1640 c3        1 39H     -0.178700
     14 C1          6.4170   -0.7610    1.1770 c         1 39H      0.677100
     15 O1          7.0410   -1.8220    1.3550 o         1 39H     -0.587100
     16 N1          6.3630    0.2680    2.1040 ns        1 39H     -0.454100
     17 C23         6.8400    0.2270    3.4300 ca        1 39H      0.051600
     18 C18         7.8410   -0.6910    3.8390 ca        1 39H     -0.135000
     19 C22         6.3180    1.1680    4.3490 ca        1 39H     -0.145000
     20 C21         6.8090    1.1770    5.6460 ca        1 39H     -0.060800
     21 C26         6.5450    1.9570    6.8400 cc        1 39H     -0.138400
     22 C30         5.6230    3.0760    7.0820 c3        1 39H     -0.006200
     23 C29         5.4440    3.2990    8.5790 c3        1 39H     -0.079400
     24 C28         6.7550    3.2590    9.3450 c3        1 39H     -0.075400
     25 C27         7.4680    1.9180    9.2200 c3        1 39H     -0.018200
     26 C25         7.3750    1.4600    7.8260 cd        1 39H      0.038900
     27 O24         8.1750    0.4020    7.3700 os        1 39H     -0.191200
     28 C20         7.8180    0.2350    6.0240 ca        1 39H      0.036100
     29 C19         8.3380   -0.6980    5.1390 ca        1 39H     -0.098000
     30 H1          2.3630   -0.7010    3.2130 h1        1 39H      0.062367
     31 H2          0.8800   -1.3080    2.3180 h1        1 39H      0.062367
     32 H3          1.0870    0.4810    2.6260 h1        1 39H      0.062367
     33 H4          0.3200    0.3150   -2.4350 ha        1 39H      0.164000
     34 H5          1.5050    0.4910   -4.6440 ha        1 39H      0.144000
     35 H6          3.9860    0.2700   -4.7440 ha        1 39H      0.141000
     36 H7          5.3020   -0.1230   -2.6750 ha        1 39H      0.142000
     37 H8          6.1810    0.4230   -0.6270 hc        1 39H      0.089200
     38 H9          5.9780   -1.3780   -0.8270 hc        1 39H      0.089200
     39 H10         5.7280    1.0110    1.9100 hn        1 39H      0.318500
     40 H11         8.2390   -1.4280    3.1210 ha        1 39H      0.174000
     41 H12         5.5390    1.8870    4.0550 ha        1 39H      0.136000
     42 H13         6.0340    4.0080    6.6060 hc        1 39H      0.050200
     43 H14         4.6260    2.8710    6.6110 hc        1 39H      0.050200
     44 H15         4.7580    2.5120    8.9880 hc        1 39H      0.044700
     45 H16         4.9540    4.2940    8.7430 hc        1 39H      0.044700
     46 H17         6.5590    3.4640   10.4290 hc        1 39H      0.047200
     47 H18         7.4290    4.0700    8.9620 hc        1 39H      0.047200
     48 H19         8.5410    2.0160    9.5330 hc        1 39H      0.066200
     49 H20         6.9890    1.1560    9.8920 hc        1 39H      0.066200
     50 H21         9.1100   -1.4140    5.4490 ha        1 39H      0.153000
@<TRIPOS>BOND
     1    1    2 2   
     2    2    3 1   
     3    2    6 1   
     4    3    4 1   
     5    3    5 1   
     6    4   30 1   
     7    4   31 1   
     8    4   32 1   
     9    5   12 2   
    10    6    7 ar  
    11    6   11 ar  
    12    7    8 ar  
    13    7   33 1   
    14    8    9 ar  
    15    8   34 1   
    16    9   10 ar  
    17    9   35 1   
    18   10   11 ar  
    19   10   36 1   
    20   11   12 1   
    21   12   13 1   
    22   13   14 1   
    23   13   37 1   
    24   13   38 1   
    25   14   15 2   
    26   14   16 1   
    27   16   17 1   
    28   16   39 1   
    29   17   18 ar  
    30   17   19 ar  
    31   18   29 ar  
    32   18   40 1   
    33   19   20 ar  
    34   19   41 1   
    35   20   21 1   
    36   20   28 ar  
    37   21   22 1   
    38   21   26 2   
    39   22   23 1   
    40   22   42 1   
    41   22   43 1   
    42   23   24 1   
    43   23   44 1   
    44   23   45 1   
    45   24   25 1   
    46   24   46 1   
    47   24   47 1   
    48   25   26 1   
    49   25   48 1   
    50   25   49 1   
    51   26   27 1   
    52   27   28 1   
    53   28   29 ar  
    54   29   50 1   
@<TRIPOS>SUBSTRUCTURE
     1 39H         1 TEMP              0 ****  ****    0 ROOT
