@<TRIPOS>MOLECULE
39J
   13    12     1     0     0
SMALL
bcc


@<TRIPOS>ATOM
      1 C1         -0.0550   -0.0330    0.0040 c         1 39J      0.918600
      2 O1         -0.5960   -0.8350   -0.8050 o         1 39J     -0.824800
      3 C2          1.4980    0.0160   -0.0100 c3        1 39J     -0.039300
      4 O2         -0.6700    0.6820    0.8390 o         1 39J     -0.824800
      5 C3          2.0450    0.0460    1.3970 c3        1 39J     -0.079400
      6 C4          3.5390   -0.1360    1.4660 c3        1 39J     -0.091100
      7 Cl2         2.0610    1.4370   -0.9380 cl        1 39J     -0.277400
      8 H2          1.8960   -0.8550   -0.5850 h1        1 39J      0.050700
      9 H31C        1.5380   -0.7790    1.9680 hc        1 39J      0.056700
     10 H32C        1.7430    1.0100    1.8870 hc        1 39J      0.056700
     11 H41C        3.8410   -1.1030    0.9970 hc        1 39J      0.018033
     12 H42C        4.0630    0.6910    0.9290 hc        1 39J      0.018033
     13 H43C        3.8820   -0.1390    2.5290 hc        1 39J      0.018033
@<TRIPOS>BOND
     1    1    2 1   
     2    1    3 1   
     3    1    4 1   
     4    3    5 1   
     5    3    7 1   
     6    3    8 1   
     7    5    6 1   
     8    5    9 1   
     9    5   10 1   
    10    6   11 1   
    11    6   12 1   
    12    6   13 1   
@<TRIPOS>SUBSTRUCTURE
     1 39J         1 TEMP              0 ****  ****    0 ROOT
