@<TRIPOS>MOLECULE
39J
   13    12     1     0     0
SMALL
bcc


@<TRIPOS>ATOM
      1 C1         -1.3520    0.2810   -0.0050 c         1 39J      0.918600
      2 O1         -2.2000    0.1410    0.9170 o         1 39J     -0.824800
      3 C2          0.1400    0.1240    0.4010 c3        1 39J     -0.039300
      4 O2         -1.6210    0.5790   -1.1990 o         1 39J     -0.824800
      5 C3          0.9840    1.2000   -0.2410 c3        1 39J     -0.079400
      6 C4          2.3950    1.2510    0.2850 c3        1 39J     -0.091100
      7 CL2         0.7340   -1.4990   -0.0500 cl        1 39J     -0.277400
      8 H2          0.2300    0.1440    1.5140 h1        1 39J      0.050700
      9 H31C        0.9840    1.0500   -1.3530 hc        1 39J      0.056700
     10 H32C        0.4740    2.1830   -0.0480 hc        1 39J      0.056700
     11 H41C        2.9610    2.0830   -0.2000 hc        1 39J      0.018033
     12 H42C        2.3990    1.4190    1.3890 hc        1 39J      0.018033
     13 H43C        2.9290    0.2930    0.0760 hc        1 39J      0.018033
@<TRIPOS>BOND
     1    1    2 1   
     2    1    3 1   
     3    1    4 1   
     4    3    5 1   
     5    3    7 1   
     6    3    8 1   
     7    5    6 1   
     8    5    9 1   
     9    5   10 1   
    10    6   11 1   
    11    6   12 1   
    12    6   13 1   
@<TRIPOS>SUBSTRUCTURE
     1 39J         1 TEMP              0 ****  ****    0 ROOT
