@<TRIPOS>MOLECULE
39J
   13    11     1     0     0
SMALL
bcc


@<TRIPOS>ATOM
      1 C1         -1.7530    0.4870   -0.8520 c1        1 39J      0.338000
      2 O1         -2.5710   -0.4700   -0.8570 os        1 39J     -0.562000
      3 C2         -0.2670    0.2110   -0.7710 c3        1 39J     -0.102000
      4 O2         -2.1710    1.6720   -0.9150 o         1 39J     -0.557000
      5 C3          0.1490    0.1130    0.6800 c3        1 39J     -0.158000
      6 C4          1.3760   -0.7640    0.7950 c3        1 39J     -0.209000
      7 CL2         0.6070    1.5090   -1.5400 cl        1 39J     -0.204000
      8 H2         -0.0670   -0.6290   -1.2240 h1        1 39J      0.090000
      9 H31C       -0.5800   -0.2760    1.2030 hc        1 39J      0.096000
     10 H32C        0.3530    1.0070    1.0220 hc        1 39J      0.096000
     11 H41C        1.9820   -0.5770    0.0470 hc        1 39J      0.057333
     12 H42C        1.8340   -0.5760    1.6410 hc        1 39J      0.057333
     13 H43C        1.1080   -1.7060    0.7710 hc        1 39J      0.057333
@<TRIPOS>BOND
     1    1    3 1   
     2    1    4 1   
     3    3    5 1   
     4    3    7 1   
     5    3    8 1   
     6    5    6 1   
     7    5    9 1   
     8    5   10 1   
     9    6   11 1   
    10    6   12 1   
    11    6   13 1   
@<TRIPOS>SUBSTRUCTURE
     1 39J         1 TEMP              0 ****  ****    0 ROOT
