@<TRIPOS>MOLECULE
39J
   13    12     1     0     0
SMALL
bcc


@<TRIPOS>ATOM
      1 C1         -0.0550   -0.0250    0.0050 c         1 39J      0.918600
      2 O1         -0.5980   -0.8190   -0.8100 o         1 39J     -0.824800
      3 C2          1.4980    0.0230   -0.0100 c3        1 39J     -0.039300
      4 O2         -0.6690    0.6840    0.8470 o         1 39J     -0.824800
      5 C3          2.0450    0.0400    1.3970 c3        1 39J     -0.079400
      6 C4          3.5390   -0.1430    1.4640 c3        1 39J     -0.091100
      7 CL2         2.0610    1.4510   -0.9250 cl        1 39J     -0.277400
      8 H2          1.8940   -0.8430   -0.5930 h1        1 39J      0.050700
      9 H31C        1.7450    1.0000    1.8950 hc        1 39J      0.056700
     10 H32C        1.5380   -0.7890    1.9620 hc        1 39J      0.056700
     11 H41C        3.8410   -1.1070    0.9860 hc        1 39J      0.018033
     12 H42C        4.0640    0.6880    0.9330 hc        1 39J      0.018033
     13 H43C        3.8830   -0.1560    2.5270 hc        1 39J      0.018033
@<TRIPOS>BOND
     1    1    2 1   
     2    1    3 1   
     3    1    4 1   
     4    3    5 1   
     5    3    7 1   
     6    3    8 1   
     7    5    6 1   
     8    5    9 1   
     9    5   10 1   
    10    6   11 1   
    11    6   12 1   
    12    6   13 1   
@<TRIPOS>SUBSTRUCTURE
     1 39J         1 TEMP              0 ****  ****    0 ROOT
