@<TRIPOS>MOLECULE
39K
   59    61     1     0     0
SMALL
bcc


@<TRIPOS>ATOM
      1 C1          1.2640   -0.0510   -0.6820 c3        1 39K     -0.107100
      2 C2          2.3560   -1.0990   -0.6950 c3        1 39K     -0.076700
      3 C3          2.9140   -1.2680    0.7090 c3        1 39K     -0.107100
      4 C4          1.8530   -2.4680   -1.1630 c3        1 39K      0.107800
      5 N5          1.6460   -2.7100   -2.6150 nx        1 39K     -0.620300
      6 C6          2.2260   -1.7100   -3.5580 c3        1 39K      0.212100
      7 C7          3.6700   -1.8880   -3.7970 cc        1 39K     -0.252400
      8 C8          4.2140   -2.9350   -4.5330 cd        1 39K     -0.109000
      9 C9          5.6250   -2.8250   -4.6370 cd        1 39K     -0.146000
     10 C10         6.1030   -1.6920   -3.9870 cc        1 39K     -0.025100
     11 S11         4.8520   -0.8250   -3.2850 ss        1 39K      0.112200
     12 C12         7.4860   -1.2820   -3.8940 ca        1 39K      0.015000
     13 C13         8.5140   -2.2360   -3.9190 ca        1 39K     -0.137500
     14 C14         9.8420   -1.8330   -3.8060 ca        1 39K     -0.015000
     15 C15        10.1760   -0.4810   -3.6720 ca        1 39K     -0.351500
     16 C16         9.1450    0.4650   -3.6500 ca        1 39K     -0.015000
     17 C17         7.8140    0.0770   -3.7610 ca        1 39K     -0.137500
     18 S18        11.7890   -0.0030   -3.4770 sy        1 39K      1.394300
     19 O19        11.8180    1.2310   -2.8160 o         1 39K     -0.646800
     20 O20        12.5170   -1.0680   -2.9350 o         1 39K     -0.646800
     21 C21        12.2200    0.2110   -5.0930 c3        1 39K     -0.368300
     22 S22        -0.1810   -3.1180   -3.0540 s6        1 39K      1.345900
     23 O23        -0.0270   -3.5660   -4.3530 o         1 39K     -0.555800
     24 O24        -0.5180   -3.9860   -2.0340 o         1 39K     -0.555800
     25 C25        -0.8650   -1.5930   -2.9160 c3        1 39K     -0.279300
     26 C26        -2.3060   -1.6800   -3.2840 ca        1 39K     -0.162300
     27 C27        -2.7090   -1.4440   -4.6050 ca        1 39K     -0.095500
     28 C28        -4.0610   -1.4960   -4.9390 ca        1 39K     -0.117000
     29 C29        -5.0150   -1.7720   -3.9580 ca        1 39K     -0.077000
     30 C30        -4.6160   -1.9950   -2.6390 ca        1 39K     -0.117000
     31 C31        -3.2670   -1.9440   -2.2970 ca        1 39K     -0.095500
     32 H1          0.4070   -0.3780   -0.0430 hc        1 39K      0.054367
     33 H2          1.6650    0.9030   -0.2560 hc        1 39K      0.054367
     34 H3          0.8860    0.1680   -1.7100 hc        1 39K      0.054367
     35 H4          3.2000   -0.7550   -1.3610 hc        1 39K      0.066700
     36 H5          3.7810   -1.9720    0.7090 hc        1 39K      0.054367
     37 H6          2.1320   -1.6600    1.4030 hc        1 39K      0.054367
     38 H7          3.2650   -0.2790    1.0950 hc        1 39K      0.054367
     39 H8          0.8670   -2.6820   -0.6500 hx        1 39K      0.095700
     40 H9          2.5930   -3.2400   -0.7930 hx        1 39K      0.095700
     41 H10         2.0050   -0.6720   -3.1790 hx        1 39K      0.098700
     42 H11         1.6830   -1.8570   -4.5450 hx        1 39K      0.098700
     43 H12         3.6420   -3.7420   -5.0000 ha        1 39K      0.164000
     44 H13         6.2490   -3.5430   -5.1790 ha        1 39K      0.180000
     45 H14         8.2710   -3.3050   -4.0170 ha        1 39K      0.143000
     46 H15        10.6460   -2.5920   -3.8010 ha        1 39K      0.167000
     47 H16         9.3960    1.5350   -3.5240 ha        1 39K      0.167000
     48 H17         7.0190    0.8380   -3.7470 ha        1 39K      0.143000
     49 H18        11.6180    0.9960   -5.6140 h1        1 39K      0.121033
     50 H19        13.2900    0.5340   -5.1850 h1        1 39K      0.121033
     51 H20        12.1280   -0.7190   -5.7050 h1        1 39K      0.121033
     52 H21        -0.3820   -0.8150   -3.5740 h1        1 39K      0.153700
     53 H22        -0.7970   -1.1690   -1.8710 h1        1 39K      0.153700
     54 H23        -1.9630   -1.2170   -5.3830 ha        1 39K      0.142500
     55 H24        -4.3750   -1.3150   -5.9790 ha        1 39K      0.160000
     56 H25        -6.0840   -1.8110   -4.2240 ha        1 39K      0.160000
     57 H26        -5.3690   -2.2080   -1.8630 ha        1 39K      0.160000
     58 H27        -2.9600   -2.1130   -1.2530 ha        1 39K      0.142500
     59 H51         2.1510   -3.5820   -2.8200 hn        1 39K      0.447800
@<TRIPOS>BOND
     1    1    2 1   
     2    1   32 1   
     3    1   33 1   
     4    1   34 1   
     5    2    3 1   
     6    2    4 1   
     7    2   35 1   
     8    3   36 1   
     9    3   37 1   
    10    3   38 1   
    11    4    5 1   
    12    4   39 1   
    13    4   40 1   
    14    5    6 1   
    15    5   22 1   
    16    5   59 1   
    17    6    7 1   
    18    6   41 1   
    19    6   42 1   
    20    7    8 2   
    21    7   11 1   
    22    8    9 1   
    23    8   43 1   
    24    9   10 2   
    25    9   44 1   
    26   10   11 1   
    27   10   12 1   
    28   12   13 ar  
    29   12   17 ar  
    30   13   14 ar  
    31   13   45 1   
    32   14   15 ar  
    33   14   46 1   
    34   15   16 ar  
    35   15   18 1   
    36   16   17 ar  
    37   16   47 1   
    38   17   48 1   
    39   18   19 2   
    40   18   20 2   
    41   18   21 1   
    42   21   49 1   
    43   21   50 1   
    44   21   51 1   
    45   22   23 2   
    46   22   24 2   
    47   22   25 1   
    48   25   26 1   
    49   25   52 1   
    50   25   53 1   
    51   26   27 ar  
    52   26   31 ar  
    53   27   28 ar  
    54   27   54 1   
    55   28   29 ar  
    56   28   55 1   
    57   29   30 ar  
    58   29   56 1   
    59   30   31 ar  
    60   30   57 1   
    61   31   58 1   
@<TRIPOS>SUBSTRUCTURE
     1 39K         1 TEMP              0 ****  ****    0 ROOT
