@<TRIPOS>MOLECULE
39K
   59    61     1     0     0
SMALL
bcc


@<TRIPOS>ATOM
      1 C1          1.2510   -0.0530   -0.6950 c3        1 39K     -0.107100
      2 C2          2.3420   -1.1010   -0.7010 c3        1 39K     -0.077700
      3 C3          2.8920   -1.2710    0.7070 c3        1 39K     -0.107100
      4 C4          1.8410   -2.4700   -1.1730 c3        1 39K      0.107800
      5 N5          1.6440   -2.7110   -2.6270 n4        1 39K     -0.620300
      6 C6          2.2310   -1.7120   -3.5660 c3        1 39K      0.212100
      7 C7          3.6750   -1.8890   -3.7940 cc        1 39K     -0.252400
      8 C8          4.2260   -2.9380   -4.5230 cd        1 39K     -0.109000
      9 C9          5.6370   -2.8280   -4.6180 cd        1 39K     -0.146000
     10 C10         6.1100   -1.6930   -3.9680 cc        1 39K     -0.025100
     11 S11         4.8540   -0.8250   -3.2770 ss        1 39K      0.112200
     12 C12         7.4920   -1.2820   -3.8670 ca        1 39K      0.015000
     13 C13         8.5200   -2.2360   -3.8810 ca        1 39K     -0.137500
     14 C14         9.8470   -1.8310   -3.7610 ca        1 39K     -0.015000
     15 C15        10.1800   -0.4790   -3.6300 ca        1 39K     -0.351500
     16 C16         9.1490    0.4670   -3.6180 ca        1 39K     -0.015000
     17 C17         7.8190    0.0780   -3.7370 ca        1 39K     -0.137500
     18 S18        11.7910    0.0010   -3.4250 sy        1 39K      1.394300
     19 O19        11.8160    1.2370   -2.7700 o         1 39K     -0.646800
     20 O20        12.5160   -1.0620   -2.8740 o         1 39K     -0.646800
     21 C21        12.2330    0.2080   -5.0390 c3        1 39K     -0.368300
     22 S22        -0.1820   -3.1180   -3.0770 s6        1 39K      1.345900
     23 O23        -0.0190   -3.5660   -4.3750 o         1 39K     -0.555800
     24 O24        -0.5260   -3.9860   -2.0590 o         1 39K     -0.555800
     25 C25        -0.8650   -1.5930   -2.9430 c3        1 39K     -0.279300
     26 C26        -2.3030   -1.6780   -3.3200 ca        1 39K     -0.162300
     27 C27        -2.6980   -1.4400   -4.6440 ca        1 39K     -0.095500
     28 C28        -4.0470   -1.4910   -4.9860 ca        1 39K     -0.117000
     29 C29        -5.0080   -1.7670   -4.0120 ca        1 39K     -0.077000
     30 C30        -4.6180   -1.9920   -2.6900 ca        1 39K     -0.117000
     31 C31        -3.2700   -1.9420   -2.3400 ca        1 39K     -0.095500
     32 H1          1.6490    0.9010   -0.2660 hc        1 39K      0.054367
     33 H2          0.8800    0.1670   -1.7240 hc        1 39K      0.054367
     34 H3          0.3900   -0.3790   -0.0610 hc        1 39K      0.054367
     35 H4          3.1910   -0.7580   -1.3620 hc        1 39K      0.066700
     36 H5          3.7580   -1.9760    0.7120 hc        1 39K      0.054367
     37 H6          3.2400   -0.2830    1.0950 hc        1 39K      0.054367
     38 H7          2.1050   -1.6630    1.3950 hc        1 39K      0.054367
     39 H8          0.8520   -2.6830   -0.6660 hx        1 39K      0.095700
     40 H9          2.5780   -3.2430   -0.7990 hx        1 39K      0.095700
     41 H10         2.0070   -0.6730   -3.1880 hx        1 39K      0.098700
     42 H11         1.6940   -1.8580   -4.5560 hx        1 39K      0.098700
     43 H12         3.6570   -3.7470   -4.9920 ha        1 39K      0.164000
     44 H13         6.2650   -3.5470   -5.1540 ha        1 39K      0.180000
     45 H14         8.2790   -3.3050   -3.9770 ha        1 39K      0.143000
     46 H15        10.6510   -2.5900   -3.7470 ha        1 39K      0.167000
     47 H16         9.3990    1.5370   -3.4950 ha        1 39K      0.167000
     48 H17         7.0230    0.8390   -3.7320 ha        1 39K      0.143000
     49 H18        11.6360    0.9910   -5.5680 h1        1 39K      0.121033
     50 H19        12.1460   -0.7250   -5.6480 h1        1 39K      0.121033
     51 H20        13.3040    0.5310   -5.1260 h1        1 39K      0.121033
     52 H21        -0.8030   -1.1680   -1.8980 h1        1 39K      0.153700
     53 H22        -0.3760   -0.8150   -3.5970 h1        1 39K      0.153700
     54 H23        -1.9470   -1.2130   -5.4170 ha        1 39K      0.142500
     55 H24        -4.3550   -1.3080   -6.0280 ha        1 39K      0.160000
     56 H25        -6.0750   -1.8050   -4.2850 ha        1 39K      0.160000
     57 H26        -5.3760   -2.2050   -1.9190 ha        1 39K      0.160000
     58 H27        -2.9710   -2.1120   -1.2940 ha        1 39K      0.142500
     59 H51         2.1490   -3.5830   -2.8280 hn        1 39K      0.447800
@<TRIPOS>BOND
     1    1    2 1   
     2    1   32 1   
     3    1   33 1   
     4    1   34 1   
     5    2    3 1   
     6    2    4 1   
     7    2   35 1   
     8    3   36 1   
     9    3   37 1   
    10    3   38 1   
    11    4    5 1   
    12    4   39 1   
    13    4   40 1   
    14    5    6 1   
    15    5   22 1   
    16    5   59 1   
    17    6    7 1   
    18    6   41 1   
    19    6   42 1   
    20    7    8 2   
    21    7   11 1   
    22    8    9 1   
    23    8   43 1   
    24    9   10 2   
    25    9   44 1   
    26   10   11 1   
    27   10   12 1   
    28   12   13 ar  
    29   12   17 ar  
    30   13   14 ar  
    31   13   45 1   
    32   14   15 ar  
    33   14   46 1   
    34   15   16 ar  
    35   15   18 1   
    36   16   17 ar  
    37   16   47 1   
    38   17   48 1   
    39   18   19 2   
    40   18   20 2   
    41   18   21 1   
    42   21   49 1   
    43   21   50 1   
    44   21   51 1   
    45   22   23 2   
    46   22   24 2   
    47   22   25 1   
    48   25   26 1   
    49   25   52 1   
    50   25   53 1   
    51   26   27 ar  
    52   26   31 ar  
    53   27   28 ar  
    54   27   54 1   
    55   28   29 ar  
    56   28   55 1   
    57   29   30 ar  
    58   29   56 1   
    59   30   31 ar  
    60   30   57 1   
    61   31   58 1   
@<TRIPOS>SUBSTRUCTURE
     1 39K         1 TEMP              0 ****  ****    0 ROOT
