@<TRIPOS>MOLECULE
39K
   58    60     1     0     0
SMALL
bcc


@<TRIPOS>ATOM
      1 C1          0.3390    0.0790    0.0500 c3        1 39K     -0.094100
      2 C2          1.7990   -0.2960   -0.0530 c3        1 39K     -0.082700
      3 C3          2.3710   -0.5780    1.3220 c3        1 39K     -0.094100
      4 C4          2.0210   -1.5400   -0.9300 c3        1 39K      0.211800
      5 N5          1.5970   -1.4390   -2.3030 n3        1 39K     -0.807500
      6 C6          2.3430   -0.5440   -3.1510 c3        1 39K      0.305100
      7 C7          3.6660   -1.0500   -3.6070 cc        1 39K     -0.151400
      8 C8          3.8490   -2.0490   -4.5470 cd        1 39K     -0.136000
      9 C9          5.2310   -2.2830   -4.8040 cd        1 39K     -0.127000
     10 C10         6.0480   -1.4520   -4.0510 cc        1 39K     -0.087100
     11 S11         5.1250   -0.4380   -3.0670 ss        1 39K      0.038200
     12 C12         7.4890   -1.4190   -4.0680 ca        1 39K      0.073000
     13 C13         8.2140   -2.0090   -5.1160 ca        1 39K     -0.156000
     14 C14         9.6030   -1.9660   -5.1190 ca        1 39K     -0.010500
     15 C15        10.3130   -1.3320   -4.0910 ca        1 39K     -0.396500
     16 C16         9.5840   -0.7540   -3.0420 ca        1 39K     -0.010500
     17 C17         8.1960   -0.7920   -3.0260 ca        1 39K     -0.156000
     18 S18        11.9850   -1.3030   -4.0910 sy        1 39K      1.399300
     19 O19        12.4660   -1.1300   -2.7850 o         1 39K     -0.658300
     20 O20        12.4890   -2.3820   -4.8320 o         1 39K     -0.658300
     21 C21        12.2500    0.1260   -4.9620 c3        1 39K     -0.356300
     22 S22         0.4700   -2.4470   -2.9330 s6        1 39K      1.432900
     23 O23         0.7770   -2.7150   -4.2860 o         1 39K     -0.644300
     24 O24         0.2790   -3.5530   -2.0820 o         1 39K     -0.644300
     25 C25        -0.9520   -1.4500   -2.8930 c3        1 39K     -0.245300
     26 C26        -2.1400   -2.1070   -3.4900 ca        1 39K     -0.075300
     27 C27        -2.1930   -2.3500   -4.8690 ca        1 39K     -0.113500
     28 C28        -3.3240   -2.9380   -5.4320 ca        1 39K     -0.127500
     29 C29        -4.4090   -3.2850   -4.6280 ca        1 39K     -0.120000
     30 C30        -4.3600   -3.0460   -3.2550 ca        1 39K     -0.127500
     31 C31        -3.2310   -2.4570   -2.6860 ca        1 39K     -0.113500
     32 H1          0.2040    0.8940    0.8030 hc        1 39K      0.038367
     33 H2         -0.0440    0.4470   -0.9320 hc        1 39K      0.038367
     34 H3         -0.2740   -0.7980    0.3710 hc        1 39K      0.038367
     35 H4          2.3610    0.5730   -0.4970 hc        1 39K      0.047700
     36 H5          2.2640    0.3220    1.9730 hc        1 39K      0.038367
     37 H6          1.8330   -1.4300    1.8050 hc        1 39K      0.038367
     38 H7          3.4550   -0.8380    1.2520 hc        1 39K      0.038367
     39 H8          1.4780   -2.4100   -0.4540 h1        1 39K      0.065200
     40 H9          3.1260   -1.7770   -0.9100 h1        1 39K      0.065200
     41 H10         2.4910    0.4370   -2.6100 h1        1 39K      0.061200
     42 H11         1.7160   -0.3360   -4.0720 h1        1 39K      0.061200
     43 H12         3.0350   -2.5960   -5.0380 ha        1 39K      0.190000
     44 H13         5.5840   -3.0390   -5.5100 ha        1 39K      0.161000
     45 H14         7.6800   -2.5080   -5.9390 ha        1 39K      0.143500
     46 H15        10.1630   -2.4510   -5.9390 ha        1 39K      0.156000
     47 H16        10.1300   -0.2770   -2.2080 ha        1 39K      0.156000
     48 H17         7.6450   -0.3370   -2.1880 ha        1 39K      0.143500
     49 H18        11.8300    1.0300   -4.4580 h1        1 39K      0.113033
     50 H19        13.3450    0.3200   -5.0920 h1        1 39K      0.113033
     51 H20        11.8140    0.1010   -5.9900 h1        1 39K      0.113033
     52 H21        -0.7780   -0.4850   -3.4420 h1        1 39K      0.111700
     53 H22        -1.1910   -1.1560   -1.8350 h1        1 39K      0.111700
     54 H23        -1.3280   -2.0960   -5.5020 ha        1 39K      0.142000
     55 H24        -3.3560   -3.1310   -6.5150 ha        1 39K      0.135000
     56 H25        -5.3000   -3.7490   -5.0750 ha        1 39K      0.134000
     57 H26        -5.2120   -3.3230   -2.6160 ha        1 39K      0.135000
     58 H27        -3.1990   -2.2740   -1.6020 ha        1 39K      0.142000
@<TRIPOS>BOND
     1    1    2 1   
     2    1   32 1   
     3    1   33 1   
     4    1   34 1   
     5    2    3 1   
     6    2    4 1   
     7    2   35 1   
     8    3   36 1   
     9    3   37 1   
    10    3   38 1   
    11    4    5 1   
    12    4   39 1   
    13    4   40 1   
    14    5    6 1   
    15    5   22 1   
    16    6    7 1   
    17    6   41 1   
    18    6   42 1   
    19    7    8 2   
    20    7   11 1   
    21    8    9 1   
    22    8   43 1   
    23    9   10 2   
    24    9   44 1   
    25   10   11 1   
    26   10   12 1   
    27   12   13 ar  
    28   12   17 ar  
    29   13   14 ar  
    30   13   45 1   
    31   14   15 ar  
    32   14   46 1   
    33   15   16 ar  
    34   15   18 1   
    35   16   17 ar  
    36   16   47 1   
    37   17   48 1   
    38   18   19 2   
    39   18   20 2   
    40   18   21 1   
    41   21   49 1   
    42   21   50 1   
    43   21   51 1   
    44   22   23 2   
    45   22   24 2   
    46   22   25 1   
    47   25   26 1   
    48   25   52 1   
    49   25   53 1   
    50   26   27 ar  
    51   26   31 ar  
    52   27   28 ar  
    53   27   54 1   
    54   28   29 ar  
    55   28   55 1   
    56   29   30 ar  
    57   29   56 1   
    58   30   31 ar  
    59   30   57 1   
    60   31   58 1   
@<TRIPOS>SUBSTRUCTURE
     1 39K         1 TEMP              0 ****  ****    0 ROOT
