@<TRIPOS>MOLECULE
39O
   27    28     1     0     0
SMALL
bcc


@<TRIPOS>ATOM
      1 CAA         0.0120    0.1330    0.0180 c3        1 39O     -0.044800
      2 CAH         1.4930    0.0730   -0.0010 ca        1 39O     -0.143300
      3 CAF         2.1840    0.1600    1.2170 ca        1 39O     -0.080000
      4 CAK         3.5670    0.1070    1.2160 ca        1 39O     -0.056400
      5 NAM         4.5130    0.2430    2.2690 n         1 39O     -0.327000
      6 CAB         4.2400   -0.1720    3.6100 c3        1 39O      0.080300
      7 CAJ         5.8140    0.0520    1.6850 c         1 39O      0.774500
      8 OAE         6.8940    0.0610    2.2970 o         1 39O     -0.622500
      9 NAN         5.6670   -0.1340    0.2690 n         1 39O     -0.354000
     10 CAC         6.7130    0.1420   -0.6600 c3        1 39O      0.090300
     11 CAL         4.2870   -0.0420   -0.0290 ca        1 39O      0.037600
     12 CAG         3.6140   -0.1240   -1.2350 ca        1 39O     -0.189000
     13 CAI         2.1940   -0.0590   -1.2270 ca        1 39O      0.148600
     14 NAD         1.5110   -0.0470   -2.4500 nv        1 39O     -0.815200
     15 H1         -0.4280   -0.8000   -0.4160 hc        1 39O      0.041367
     16 H2         -0.3740    0.2410    1.0620 hc        1 39O      0.041367
     17 H3         -0.3550    1.0070   -0.5780 hc        1 39O      0.041367
     18 H4          1.6250    0.2710    2.1580 ha        1 39O      0.141000
     19 H5          5.1530    0.0210    4.2360 h1        1 39O      0.052033
     20 H6          3.9750   -1.2620    3.6730 h1        1 39O      0.052033
     21 H7          3.3790    0.4330    3.9990 h1        1 39O      0.052033
     22 H8          7.7000   -0.0090   -0.1450 h1        1 39O      0.052367
     23 H9          6.6260   -0.5680   -1.5260 h1        1 39O      0.052367
     24 H10         6.6570    1.1960   -1.0490 h1        1 39O      0.052367
     25 H11         4.1670   -0.2280   -2.1790 ha        1 39O      0.142000
     26 H12         0.5660   -0.3570   -2.3960 hn        1 39O      0.389300
     27 H13         2.0150   -0.4630   -3.2020 hn        1 39O      0.389300
@<TRIPOS>BOND
     1    1    2 1   
     2    1   15 1   
     3    1   16 1   
     4    1   17 1   
     5    2    3 ar  
     6    2   13 ar  
     7    3    4 ar  
     8    3   18 1   
     9    4    5 1   
    10    4   11 ar  
    11    5    6 1   
    12    5    7 1   
    13    6   19 1   
    14    6   20 1   
    15    6   21 1   
    16    7    8 2   
    17    7    9 1   
    18    9   10 1   
    19    9   11 1   
    20   10   22 1   
    21   10   23 1   
    22   10   24 1   
    23   11   12 ar  
    24   12   13 ar  
    25   12   25 1   
    26   13   14 1   
    27   14   26 1   
    28   14   27 1   
@<TRIPOS>SUBSTRUCTURE
     1 39O         1 TEMP              0 ****  ****    0 ROOT
