@<TRIPOS>MOLECULE
39O
   27    28     1     0     0
SMALL
bcc


@<TRIPOS>ATOM
      1 CAA         0.0120   -0.1180    0.0170 c3        1 39O     -0.044800
      2 CAH         1.4940   -0.0680   -0.0020 ca        1 39O     -0.143300
      3 CAF         2.1840   -0.1510    1.2170 ca        1 39O     -0.080000
      4 CAK         3.5670   -0.1060    1.2160 ca        1 39O     -0.056400
      5 NAM         4.5120   -0.2420    2.2710 n         1 39O     -0.327000
      6 CAB         4.2420    0.1860    3.6080 c3        1 39O      0.080300
      7 CAJ         5.8140   -0.0630    1.6850 c         1 39O      0.774500
      8 OAE         6.8940   -0.0750    2.2990 o         1 39O     -0.622500
      9 NAN         5.6680    0.1130    0.2680 n         1 39O     -0.354000
     10 CAC         6.7130   -0.1760   -0.6580 c3        1 39O      0.090300
     11 CAL         4.2880    0.0280   -0.0300 ca        1 39O      0.037600
     12 CAG         3.6160    0.1060   -1.2360 ca        1 39O     -0.189000
     13 CAI         2.1960    0.0500   -1.2280 ca        1 39O      0.148600
     14 NAD         1.5130    0.0330   -2.4510 nh        1 39O     -0.815200
     15 H1         -0.3600   -0.9940   -0.5720 hc        1 39O      0.041367
     16 H2         -0.4220    0.8150   -0.4230 hc        1 39O      0.041367
     17 H3         -0.3750   -0.2160    1.0620 hc        1 39O      0.041367
     18 H4          1.6240   -0.2510    2.1590 ha        1 39O      0.141000
     19 H5          3.9830    1.2790    3.6630 h1        1 39O      0.052033
     20 H6          5.1520   -0.0080    4.2360 h1        1 39O      0.052033
     21 H7          3.3760   -0.4100    4.0020 h1        1 39O      0.052033
     22 H8          7.7010   -0.0290   -0.1440 h1        1 39O      0.052367
     23 H9          6.6320    0.5290   -1.5280 h1        1 39O      0.052367
     24 H10         6.6500   -1.2310   -1.0410 h1        1 39O      0.052367
     25 H11         4.1700    0.1990   -2.1810 ha        1 39O      0.142000
     26 H12         0.5700    0.3500   -2.4000 hn        1 39O      0.389300
     27 H13         2.0210    0.4400   -3.2060 hn        1 39O      0.389300
@<TRIPOS>BOND
     1    1    2 1   
     2    1   15 1   
     3    1   16 1   
     4    1   17 1   
     5    2    3 ar  
     6    2   13 ar  
     7    3    4 ar  
     8    3   18 1   
     9    4    5 1   
    10    4   11 ar  
    11    5    6 1   
    12    5    7 1   
    13    6   19 1   
    14    6   20 1   
    15    6   21 1   
    16    7    8 2   
    17    7    9 1   
    18    9   10 1   
    19    9   11 1   
    20   10   22 1   
    21   10   23 1   
    22   10   24 1   
    23   11   12 ar  
    24   12   13 ar  
    25   12   25 1   
    26   13   14 1   
    27   14   26 1   
    28   14   27 1   
@<TRIPOS>SUBSTRUCTURE
     1 39O         1 TEMP              0 ****  ****    0 ROOT
