@<TRIPOS>MOLECULE
39O
   27    28     1     0     0
SMALL
bcc


@<TRIPOS>ATOM
      1 CAA         0.0130    0.1450    0.0140 c3        1 39O     -0.044800
      2 CAH         1.4940    0.0780   -0.0030 ca        1 39O     -0.143300
      3 CAF         2.1840    0.1780    1.2130 ca        1 39O     -0.080000
      4 CAK         3.5670    0.1180    1.2140 ca        1 39O     -0.056400
      5 NAM         4.5130    0.2640    2.2660 n         1 39O     -0.327000
      6 CAB         4.2380   -0.1310    3.6120 c3        1 39O      0.080300
      7 CAJ         5.8130    0.0580    1.6850 c         1 39O      0.774500
      8 OAE         6.8930    0.0700    2.2990 o         1 39O     -0.622500
      9 NAN         5.6660   -0.1470    0.2720 n         1 39O     -0.354000
     10 CAC         6.7140    0.1110   -0.6600 c3        1 39O      0.090300
     11 CAL         4.2870   -0.0520   -0.0280 ca        1 39O      0.037600
     12 CAG         3.6140   -0.1480   -1.2330 ca        1 39O     -0.189000
     13 CAI         2.1950   -0.0750   -1.2270 ca        1 39O      0.148600
     14 NAD         1.5130   -0.0770   -2.4500 nh        1 39O     -0.815200
     15 H1         -0.4320   -0.7920   -0.4070 hc        1 39O      0.041367
     16 H2         -0.3730    0.2700    1.0560 hc        1 39O      0.041367
     17 H3         -0.3490    1.0120   -0.5950 hc        1 39O      0.041367
     18 H4          1.6260    0.3050    2.1530 ha        1 39O      0.141000
     19 H5          5.1500    0.0660    4.2370 h1        1 39O      0.052033
     20 H6          3.9660   -1.2180    3.6910 h1        1 39O      0.052033
     21 H7          3.3790    0.4850    3.9930 h1        1 39O      0.052033
     22 H8          7.7000   -0.0380   -0.1420 h1        1 39O      0.052367
     23 H9          6.6240   -0.6100   -1.5160 h1        1 39O      0.052367
     24 H10         6.6640    1.1590   -1.0630 h1        1 39O      0.052367
     25 H11         4.1670   -0.2680   -2.1750 ha        1 39O      0.142000
     26 H12         0.5660   -0.3820   -2.3930 hn        1 39O      0.389300
     27 H13         2.0150   -0.5060   -3.1960 hn        1 39O      0.389300
@<TRIPOS>BOND
     1    1    2 1   
     2    1   15 1   
     3    1   16 1   
     4    1   17 1   
     5    2    3 ar  
     6    2   13 ar  
     7    3    4 ar  
     8    3   18 1   
     9    4    5 1   
    10    4   11 ar  
    11    5    6 1   
    12    5    7 1   
    13    6   19 1   
    14    6   20 1   
    15    6   21 1   
    16    7    8 2   
    17    7    9 1   
    18    9   10 1   
    19    9   11 1   
    20   10   22 1   
    21   10   23 1   
    22   10   24 1   
    23   11   12 ar  
    24   12   13 ar  
    25   12   25 1   
    26   13   14 1   
    27   14   26 1   
    28   14   27 1   
@<TRIPOS>SUBSTRUCTURE
     1 39O         1 TEMP              0 ****  ****    0 ROOT
