@<TRIPOS>MOLECULE
39P
   58    61     1     0     0
SMALL
bcc


@<TRIPOS>ATOM
      1 N1         -0.2710   -1.2090   -0.2660 na        1 39P      0.218200
      2 N2          0.8200   -1.9790   -0.3950 nc        1 39P     -0.411800
      3 C3          1.7230   -1.8990    0.5800 cd        1 39P      0.643900
      4 N4          1.6610   -1.0990    1.7370 nd        1 39P     -0.633000
      5 C5          0.5790   -0.3470    1.8590 cc        1 39P      0.587200
      6 C6         -0.4850   -0.3270    0.8680 cc        1 39P     -0.287600
      7 C7         -1.7190    0.3310    0.6800 cd        1 39P      0.040800
      8 C8         -2.2570   -0.1520   -0.5650 cd        1 39P     -0.252200
      9 C9         -1.3470   -1.0920   -1.1200 cc        1 39P     -0.005100
     10 C10        -3.5300    0.2630   -1.1240 c         1 39P      0.589300
     11 O11        -4.3710    0.9760   -0.5920 o         1 39P     -0.397100
     12 N12        -3.8500   -0.2380   -2.5130 n4        1 39P     -0.672800
     13 C13        -5.1290    0.3280   -3.0660 c3        1 39P      0.105800
     14 C14        -5.4310   -0.1990   -4.4640 c3        1 39P     -0.105400
     15 C15        -6.7240    0.4140   -4.9480 c3        1 39P     -0.104100
     16 C16        -2.3220    1.3130    1.5850 c3        1 39P     -0.096900
     17 N17         0.4280    0.5460    3.0390 n4        1 39P     -0.627100
     18 C18         1.1470    0.1110    4.2470 ca        1 39P     -0.061400
     19 C19         0.4460   -0.5390    5.2920 ca        1 39P      0.038700
     20 C20         1.1640   -0.8970    6.4400 ca        1 39P     -0.105000
     21 C21         2.5260   -0.6300    6.5640 ca        1 39P     -0.005000
     22 C22         3.2130    0.0060    5.5210 ca        1 39P     -0.163600
     23 C23         2.5230    0.3710    4.3520 ca        1 39P     -0.001000
     24 C24         4.6480    0.3270    5.5430 c         1 39P      0.575700
     25 O25         5.3240    0.7110    4.5990 o         1 39P     -0.389100
     26 N26         5.4260    0.1730    6.8400 n4        1 39P     -0.620500
     27 C27         5.1480    1.2350    7.7870 cc        1 39P      0.327200
     28 N28         3.9030    1.7220    8.0840 nd        1 39P     -0.316300
     29 O29         4.0430    2.6540    8.9780 os        1 39P     -0.041100
     30 C30         5.4030    2.8350    9.3240 cd        1 39P      0.343600
     31 C31         6.1540    1.9440    8.5790 cc        1 39P     -0.321600
     32 C32        -1.0030   -0.8330    5.2130 c3        1 39P     -0.113800
     33 H3          2.6400   -2.5340    0.4830 h5        1 39P      0.134100
     34 H9         -1.3960   -1.6810   -2.0470 h4        1 39P      0.223000
     35 HN12       -3.9290   -1.2620   -2.4860 hn        1 39P      0.461800
     36 H13        -5.9620    0.0560   -2.3540 hx        1 39P      0.121700
     37 H13A       -5.0280    1.4510   -3.0800 hx        1 39P      0.121700
     38 H14        -4.6030    0.0690   -5.1730 hc        1 39P      0.068200
     39 H14A       -5.5300   -1.3170   -4.4510 hc        1 39P      0.068200
     40 H15        -6.6480    1.5270   -4.9990 hc        1 39P      0.071367
     41 H15A       -6.9520    0.0310   -5.9750 hc        1 39P      0.071367
     42 H15B       -7.5740    0.1420   -4.2770 hc        1 39P      0.071367
     43 H16        -2.6640    0.8210    2.5330 hc        1 39P      0.086033
     44 H16A       -1.6010    2.1350    1.8260 hc        1 39P      0.086033
     45 H16B       -3.2260    1.7960    1.1240 hc        1 39P      0.086033
     46 HN17        0.7750    1.4810    2.7650 hn        1 39P      0.485300
     47 H20         0.6330   -1.4010    7.2710 ha        1 39P      0.203000
     48 H21         3.0270   -0.9330    7.5000 ha        1 39P      0.172000
     49 H23         3.0840    0.8550    3.5280 ha        1 39P      0.189000
     50 HN26        5.2130   -0.7350    7.2790 hn        1 39P      0.488800
     51 H30         5.5880    3.6060   10.0780 h4        1 39P      0.127100
     52 H31         7.2340    1.7940    8.5750 ha        1 39P      0.224000
     53 H32        -1.3440   -1.4200    6.1070 hc        1 39P      0.089367
     54 H32A       -1.6020    0.1150    5.1960 hc        1 39P      0.089367
     55 H32B       -1.2440   -1.4440    4.3060 hc        1 39P      0.089367
     56 H122       -3.0790    0.0080   -3.1440 hn        1 39P      0.461800
     57 H172       -0.5830    0.6130    3.2540 hn        1 39P      0.485300
     58 H262        6.4400    0.2110    6.6230 hn        1 39P      0.488800
@<TRIPOS>BOND
     1    1    2 1   
     2    1    6 1   
     3    1    9 1   
     4    2    3 2   
     5    3    4 1   
     6    3   33 1   
     7    4    5 2   
     8    5    6 1   
     9    5   17 1   
    10    6    7 2   
    11    7    8 1   
    12    7   16 1   
    13    8    9 2   
    14    8   10 1   
    15    9   34 1   
    16   10   11 2   
    17   10   12 1   
    18   12   13 1   
    19   12   35 1   
    20   12   56 1   
    21   13   14 1   
    22   13   36 1   
    23   13   37 1   
    24   14   15 1   
    25   14   38 1   
    26   14   39 1   
    27   15   40 1   
    28   15   41 1   
    29   15   42 1   
    30   16   43 1   
    31   16   44 1   
    32   16   45 1   
    33   17   18 1   
    34   17   46 1   
    35   17   57 1   
    36   18   19 ar  
    37   18   23 ar  
    38   19   20 ar  
    39   19   32 1   
    40   20   21 ar  
    41   20   47 1   
    42   21   22 ar  
    43   21   48 1   
    44   22   23 ar  
    45   22   24 1   
    46   23   49 1   
    47   24   25 2   
    48   24   26 1   
    49   26   27 1   
    50   26   50 1   
    51   26   58 1   
    52   27   28 2   
    53   27   31 1   
    54   28   29 1   
    55   29   30 1   
    56   30   31 2   
    57   30   51 1   
    58   31   52 1   
    59   32   53 1   
    60   32   54 1   
    61   32   55 1   
@<TRIPOS>SUBSTRUCTURE
     1 39P         1 TEMP              0 ****  ****    0 ROOT
