@<TRIPOS>MOLECULE
39P
   56    59     1     0     0
SMALL
bcc


@<TRIPOS>ATOM
      1 N1         -0.0810   -0.7310   -0.0820 na        1 39P      0.279200
      2 N2          1.2100   -1.0870   -0.2150 nc        1 39P     -0.581800
      3 C3          1.9180   -1.1010    0.9260 cd        1 39P      0.693900
      4 N4          1.5080   -0.8090    2.2080 nd        1 39P     -0.769000
      5 C5          0.2060   -0.4510    2.3610 cc        1 39P      0.773200
      6 C6         -0.6810   -0.3920    1.1810 cc        1 39P     -0.277600
      7 C7         -2.0310   -0.0590    0.9540 cd        1 39P      0.036800
      8 C8         -2.2550   -0.2000   -0.4620 cd        1 39P     -0.307200
      9 C9         -1.0250   -0.6160   -1.0670 cc        1 39P     -0.084100
     10 C10        -3.4950    0.0420   -1.1270 c         1 39P      0.612300
     11 O11        -4.5930    0.3480   -0.6790 o         1 39P     -0.450100
     12 N12        -3.4340   -0.1060   -2.6510 ny        1 39P     -0.680800
     13 C13        -4.7230    0.2130   -3.3290 c3        1 39P      0.102800
     14 C14        -4.6430    0.0600   -4.8430 c3        1 39P     -0.104400
     15 C15        -5.9820    0.4010   -5.4490 c3        1 39P     -0.100100
     16 C16        -3.0170    0.3600    1.9520 c3        1 39P     -0.080900
     17 N17        -0.3210   -0.1130    3.5780 nu        1 39P     -0.707300
     18 C18         0.4050   -0.1270    4.7970 ca        1 39P      0.096600
     19 C19        -0.1420   -0.7810    5.9310 ca        1 39P     -0.063300
     20 C20         0.5570   -0.7340    7.1390 ca        1 39P     -0.119000
     21 C21         1.7800   -0.0740    7.2430 ca        1 39P     -0.086000
     22 C22         2.3180    0.5620    6.1230 ca        1 39P     -0.135600
     23 C23         1.6330    0.5510    4.9050 ca        1 39P     -0.051000
     24 C24         3.6080    1.3160    6.1780 c         1 39P      0.687700
     25 O25         3.7400    2.4060    5.5950 o         1 39P     -0.572100
     26 N26         4.6300    0.7150    6.9020 ns        1 39P     -0.529400
     27 C27         5.9010    1.2590    7.0700 cc        1 39P      0.421200
     28 N28         6.9390    0.6250    7.6990 nd        1 39P     -0.404300
     29 O29         7.9810    1.4290    7.6890 os        1 39P     -0.109100
     30 C30         7.6690    2.6410    7.0410 cd        1 39P      0.262600
     31 C31         6.3600    2.5890    6.6260 cc        1 39P     -0.350600
     32 C32        -1.4360   -1.4990    5.8590 c3        1 39P     -0.067800
     33 H3          2.9890   -1.3940    0.8260 h5        1 39P      0.091100
     34 H9         -0.7830   -0.8330   -2.1110 h4        1 39P      0.189000
     35 HN12       -3.1640   -1.0710   -2.8700 hn        1 39P      0.451300
     36 H13        -5.0030    1.2710   -3.0550 hx        1 39P      0.114200
     37 H13A       -5.5140   -0.4730   -2.9060 hx        1 39P      0.114200
     38 H14        -4.3650   -0.9930   -5.1150 hc        1 39P      0.061700
     39 H14A       -3.8570    0.7420   -5.2630 hc        1 39P      0.061700
     40 H15        -5.9280    0.2900   -6.5610 hc        1 39P      0.061367
     41 H15A       -6.7800   -0.2810   -5.0660 hc        1 39P      0.061367
     42 H15B       -6.2710    1.4540   -5.2140 hc        1 39P      0.061367
     43 H16        -3.9990    0.6120    1.4760 hc        1 39P      0.076367
     44 H16A       -3.2020   -0.4610    2.6930 hc        1 39P      0.076367
     45 H16B       -2.6610    1.2710    2.5000 hc        1 39P      0.076367
     46 HN17       -1.3130   -0.0440    3.6580 hn        1 39P      0.458800
     47 H20         0.1340   -1.2310    8.0270 ha        1 39P      0.154000
     48 H21         2.3000   -0.0470    8.2140 ha        1 39P      0.155000
     49 H23         2.0700    1.0880    4.0460 ha        1 39P      0.172000
     50 HN26        4.4700   -0.1920    7.2860 hn        1 39P      0.338500
     51 H30         8.4830    3.3570    6.9940 h4        1 39P      0.070100
     52 H31         5.7590    3.3220    6.0930 ha        1 39P      0.204000
     53 H32        -1.6680   -2.0070    6.8290 hc        1 39P      0.053700
     54 H32A       -1.4130   -2.2810    5.0590 hc        1 39P      0.053700
     55 H32B       -2.2710   -0.7860    5.6390 hc        1 39P      0.053700
     56 H122       -2.7000    0.5160   -3.0060 hn        1 39P      0.451300
@<TRIPOS>BOND
     1    1    2 1   
     2    1    6 1   
     3    1    9 1   
     4    2    3 2   
     5    3    4 1   
     6    3   33 1   
     7    4    5 2   
     8    5    6 1   
     9    5   17 1   
    10    6    7 2   
    11    7    8 1   
    12    7   16 1   
    13    8    9 2   
    14    8   10 1   
    15    9   34 1   
    16   10   11 2   
    17   10   12 1   
    18   12   13 1   
    19   12   35 1   
    20   12   56 1   
    21   13   14 1   
    22   13   36 1   
    23   13   37 1   
    24   14   15 1   
    25   14   38 1   
    26   14   39 1   
    27   15   40 1   
    28   15   41 1   
    29   15   42 1   
    30   16   43 1   
    31   16   44 1   
    32   16   45 1   
    33   17   18 1   
    34   17   46 1   
    35   18   19 ar  
    36   18   23 ar  
    37   19   20 ar  
    38   19   32 1   
    39   20   21 ar  
    40   20   47 1   
    41   21   22 ar  
    42   21   48 1   
    43   22   23 ar  
    44   22   24 1   
    45   23   49 1   
    46   24   25 2   
    47   24   26 1   
    48   26   27 1   
    49   26   50 1   
    50   27   28 2   
    51   27   31 1   
    52   28   29 1   
    53   29   30 1   
    54   30   31 2   
    55   30   51 1   
    56   31   52 1   
    57   32   53 1   
    58   32   54 1   
    59   32   55 1   
@<TRIPOS>SUBSTRUCTURE
     1 39P         1 TEMP              0 ****  ****    0 ROOT
