@<TRIPOS>MOLECULE
39P
   55    46     1     0     0
SMALL
bcc


@<TRIPOS>ATOM
      1 N1          0.6730   -1.3320   -2.1770 n1        1 39P     -0.004000
      2 N2          2.0450   -1.3650   -2.1560 n1        1 39P     -0.116000
      3 C3          2.7120   -1.3150   -0.9670 c1        1 39P     -0.019000
      4 N4          2.0120   -1.2320    0.2100 n1        1 39P     -0.247000
      5 C5          0.6720   -1.2000    0.1940 c1        1 39P      0.227000
      6 C6         -0.0140   -1.2510   -1.0230 c1        1 39P     -0.193000
      7 C7         -1.3800   -1.2510   -1.3320 c1        1 39P     -0.035500
      8 C8         -1.5050   -1.3320   -2.6890 c1        1 39P     -0.192000
      9 C9         -0.2480   -1.3840   -3.2260 c1        1 39P     -0.035500
     10 C10        -2.8070   -1.2820   -3.5080 c1        1 39P      0.378000
     11 O11        -3.8910   -1.2480   -2.9340 o         1 39P     -0.377000
     12 N12        -2.7580   -1.3830   -4.9480 n3        1 39P     -0.378000
     13 C13        -3.9860   -1.3830   -5.7140 c3        1 39P     -0.030000
     14 C14        -3.6640   -1.4040   -7.1850 c3        1 39P     -0.184000
     15 C15        -4.9550   -1.4110   -7.9840 c3        1 39P     -0.210000
     16 C16        -2.5760   -1.2700   -0.3730 c2        1 39P     -0.182000
     17 N17         0.3280   -1.3080    1.5580 n3        1 39P     -0.248000
     18 C18         1.1950   -0.7070    2.5890 c2        1 39P      0.047000
     19 C19         1.6780   -1.4950    3.6320 c2        1 39P     -0.076000
     20 C20         2.3670   -0.9080    4.6850 c1        1 39P     -0.122000
     21 C21         2.5760    0.4710    4.7020 c1        1 39P     -0.112000
     22 C22         2.0980    1.2550    3.6680 c1        1 39P     -0.119000
     23 C23         1.4030    0.6640    2.6040 c1        1 39P     -0.059000
     24 C24         2.3680    2.7340    3.6620 c2        1 39P      0.352000
     25 O25         1.9490    3.4190    2.7560 o         1 39P     -0.283000
     26 N26         2.9660    3.3510    4.8020 n         1 39P     -0.311000
     27 C27         3.0710    4.7850    4.8730 c2        1 39P      0.022000
     28 N28         2.9150    5.6430    3.8400 n2        1 39P     -0.022000
     29 O29         3.2330    6.9280    4.2920 os        1 39P     -0.063000
     30 C30         3.5790    6.8390    5.5930 c1        1 39P     -0.059000
     31 C31         3.4830    5.5120    5.9710 c1        1 39P     -0.264000
     32 C32         1.3220   -2.9420    3.6930 c3        1 39P     -0.191000
     33 H3          3.6900   -1.3390   -0.9540 ha        1 39P      0.209000
     34 H9         -0.0330   -1.4450   -4.1730 DU        1 39P      0.187000
     35 HN12       -1.9570   -1.4760   -5.3720 hn        1 39P      0.219000
     36 H13        -4.5140   -2.1760   -5.4850 h1        1 39P      0.101500
     37 H13A       -4.5010   -0.5760   -5.5050 h1        1 39P      0.101500
     38 H14        -3.1450   -2.2100   -7.3940 hc        1 39P      0.082500
     39 H14A       -3.1440   -0.6130   -7.4150 hc        1 39P      0.082500
     40 H15        -4.7490   -1.3330   -8.9380 hc        1 39P      0.076333
     41 H15A       -5.4360   -2.2510   -7.8210 hc        1 39P      0.076333
     42 H15B       -5.5150   -0.6560   -7.7070 hc        1 39P      0.076333
     43 H16        -3.2630   -1.8880   -0.7170 ha        1 39P      0.099333
     44 H16A       -2.2810   -1.5710    0.5130 ha        1 39P      0.099333
     45 H16B       -2.9530   -0.3690   -0.3020 ha        1 39P      0.099333
     46 HN17       -0.4510   -1.7320    1.8030 hn        1 39P      0.246000
     47 H20         2.7030   -1.4610    5.4130 ha        1 39P      0.141000
     48 H21         3.0620    0.8830    5.4450 ha        1 39P      0.141000
     49 H23         1.0660    1.2140    1.8770 ha        1 39P      0.177000
     50 HN26        3.3000    2.8360    5.4750 hn        1 39P      0.243000
     51 H30         3.8510    7.5860    6.1720 DU        1 39P      0.187000
     52 H31         3.6740    5.1530    6.8590 DU        1 39P      0.187000
     53 H32         0.3570   -3.0340    3.8310 hc        1 39P      0.091000
     54 H32A        1.8000   -3.3650    4.4360 hc        1 39P      0.091000
     55 H32B        1.5740   -3.3750    2.8530 hc        1 39P      0.091000
@<TRIPOS>BOND
     1    1    6 1   
     2    2    3 1   
     3    3   33 1   
     4    4    5 1   
     5    5   17 1   
     6    7    8 1   
     7    8    9 1   
     8   10   11 1   
     9   10   12 1   
    10   12   13 1   
    11   12   35 1   
    12   13   14 1   
    13   13   36 1   
    14   13   37 1   
    15   14   15 1   
    16   14   38 1   
    17   14   39 1   
    18   15   40 1   
    19   15   41 1   
    20   15   42 1   
    21   16   43 1   
    22   16   44 1   
    23   16   45 1   
    24   17   18 1   
    25   17   46 1   
    26   18   19 1   
    27   18   23 1   
    28   19   20 1   
    29   19   32 1   
    30   20   47 1   
    31   21   22 1   
    32   21   48 1   
    33   22   24 1   
    34   23   49 1   
    35   24   25 1   
    36   24   26 1   
    37   26   27 1   
    38   26   50 1   
    39   27   28 1   
    40   27   31 1   
    41   28   29 1   
    42   29   30 1   
    43   30   31 1   
    44   32   53 1   
    45   32   54 1   
    46   32   55 1   
@<TRIPOS>SUBSTRUCTURE
     1 39P         1 TEMP              0 ****  ****    0 ROOT
