@<TRIPOS>MOLECULE
39P
   55    58     1     0     0
SMALL
bcc


@<TRIPOS>ATOM
      1 N1         -2.6230    1.4020   -0.8930 na        1 39P      0.217200
      2 N2         -1.8460    2.3250   -1.4820 nc        1 39P     -0.548800
      3 C3         -0.5390    2.0420   -1.5060 cd        1 39P      0.642900
      4 N4          0.1240    0.9290   -1.0170 nd        1 39P     -0.784000
      5 C5         -0.6510   -0.0040   -0.4180 cc        1 39P      0.755200
      6 C6         -2.1020    0.1860   -0.3270 cc        1 39P     -0.283600
      7 C7         -3.1890   -0.5480    0.1990 cd        1 39P     -0.017200
      8 C8         -4.3680    0.2230   -0.0480 cd        1 39P     -0.210200
      9 C9         -3.9940    1.4140   -0.7190 cc        1 39P     -0.082100
     10 C10        -5.7440   -0.1540    0.3120 c         1 39P      0.703300
     11 O11        -6.1020   -1.3460    0.4260 o         1 39P     -0.615100
     12 N12        -6.6300    0.8800    0.5600 n         1 39P     -0.568900
     13 C13        -8.0260    0.6600    0.8130 c3        1 39P      0.086000
     14 C14        -8.9570    1.1800   -0.2850 c3        1 39P     -0.105400
     15 C15       -10.3950    0.9470    0.1010 c3        1 39P     -0.092100
     16 C16        -3.1360   -1.8450    0.8780 c3        1 39P     -0.060900
     17 N17        -0.1220   -1.1490    0.1560 nh        1 39P     -0.728300
     18 C18         1.2310   -1.5370    0.0410 ca        1 39P      0.129600
     19 C19         1.5560   -2.8610   -0.3560 ca        1 39P     -0.079300
     20 C20         2.8980   -3.2490   -0.4010 ca        1 39P     -0.121000
     21 C21         3.9190   -2.3590   -0.0830 ca        1 39P     -0.108000
     22 C22         3.5980   -1.0560    0.3040 ca        1 39P     -0.140600
     23 C23         2.2670   -0.6440    0.3830 ca        1 39P     -0.057000
     24 C24         4.6550   -0.0730    0.6850 c         1 39P      0.691700
     25 O25         4.5510    0.6490    1.6900 o         1 39P     -0.571100
     26 N26         5.7570   -0.0180   -0.1670 n         1 39P     -0.535400
     27 C27         6.8480    0.8270    0.0060 cc        1 39P      0.432200
     28 N28         7.9170    0.9050   -0.8460 nd        1 39P     -0.417300
     29 O29         8.7620    1.7970   -0.3700 os        1 39P     -0.118100
     30 C30         8.2760    2.3520    0.8310 cd        1 39P      0.254600
     31 C31         7.0640    1.7740    1.1200 cc        1 39P     -0.348600
     32 C32         0.5010   -3.8380   -0.7140 c3        1 39P     -0.065800
     33 H3          0.1140    2.8000   -1.9900 h5        1 39P      0.068100
     34 H9         -4.6100    2.2370   -1.0890 h4        1 39P      0.188000
     35 HN12       -6.3390    1.8130    0.4000 hn        1 39P      0.305500
     36 H13        -8.2030   -0.4450    0.9510 h1        1 39P      0.062200
     37 H13A       -8.2900    1.1790    1.7810 h1        1 39P      0.062200
     38 H14        -8.7840    2.2760   -0.4500 hc        1 39P      0.043200
     39 H14A       -8.7360    0.6570   -1.2520 hc        1 39P      0.043200
     40 H15       -10.6410    1.4780    1.0520 hc        1 39P      0.037033
     41 H15A      -11.0750    1.3240   -0.7010 hc        1 39P      0.037033
     42 H15B      -10.5920   -0.1430    0.2470 hc        1 39P      0.037033
     43 H16        -2.4740   -1.7970    1.7800 hc        1 39P      0.061033
     44 H16A       -4.1620   -2.1540    1.2110 hc        1 39P      0.061033
     45 H16B       -2.7540   -2.6400    0.1860 hc        1 39P      0.061033
     46 HN17       -0.7710   -1.8830    0.3490 hn        1 39P      0.454800
     47 H20         3.1510   -4.2790   -0.6990 ha        1 39P      0.143000
     48 H21         4.9660   -2.6950   -0.1220 ha        1 39P      0.144000
     49 H23         2.0450    0.3830    0.7210 ha        1 39P      0.175000
     50 HN26        5.7470   -0.5870   -0.9860 hn        1 39P      0.338500
     51 H30         8.9190    3.0980    1.2840 h4        1 39P      0.064100
     52 H31         6.3820    1.9360    1.9520 ha        1 39P      0.206000
     53 H32        -0.1560   -3.4340   -1.5250 hc        1 39P      0.052367
     54 H32A        0.9480   -4.7970   -1.0790 hc        1 39P      0.052367
     55 H32B       -0.1370   -4.0740    0.1760 hc        1 39P      0.052367
@<TRIPOS>BOND
     1    1    2 1   
     2    1    6 1   
     3    1    9 1   
     4    2    3 2   
     5    3    4 1   
     6    3   33 1   
     7    4    5 2   
     8    5    6 1   
     9    5   17 1   
    10    6    7 2   
    11    7    8 1   
    12    7   16 1   
    13    8    9 2   
    14    8   10 1   
    15    9   34 1   
    16   10   11 2   
    17   10   12 1   
    18   12   13 1   
    19   12   35 1   
    20   13   14 1   
    21   13   36 1   
    22   13   37 1   
    23   14   15 1   
    24   14   38 1   
    25   14   39 1   
    26   15   40 1   
    27   15   41 1   
    28   15   42 1   
    29   16   43 1   
    30   16   44 1   
    31   16   45 1   
    32   17   18 1   
    33   17   46 1   
    34   18   19 ar  
    35   18   23 ar  
    36   19   20 ar  
    37   19   32 1   
    38   20   21 ar  
    39   20   47 1   
    40   21   22 ar  
    41   21   48 1   
    42   22   23 ar  
    43   22   24 1   
    44   23   49 1   
    45   24   25 2   
    46   24   26 1   
    47   26   27 1   
    48   26   50 1   
    49   27   28 2   
    50   27   31 1   
    51   28   29 1   
    52   29   30 1   
    53   30   31 2   
    54   30   51 1   
    55   31   52 1   
    56   32   53 1   
    57   32   54 1   
    58   32   55 1   
@<TRIPOS>SUBSTRUCTURE
     1 39P         1 TEMP              0 ****  ****    0 ROOT
