@<TRIPOS>MOLECULE
39R
   30    32     1     0     0
SMALL
bcc


@<TRIPOS>ATOM
      1 CAJ        -0.0250   -0.0790    0.0180 ca        1 39R     -0.152000
      2 CAN         1.3850   -0.2010   -0.0010 ca        1 39R      0.142600
      3 NAA         2.0500   -0.5430   -1.1810 nh        1 39R     -0.820200
      4 CAF         2.0960   -0.0530    1.2130 ca        1 39R     -0.182000
      5 CAE         1.4130    0.1980    2.3970 ca        1 39R     -0.092000
      6 CAI         0.0250    0.3140    2.4140 ca        1 39R     -0.170000
      7 CAP        -0.6920    0.1720    1.2190 ca        1 39R     -0.084500
      8 CAQ        -2.1450    0.2950    1.2070 cc        1 39R      0.415000
      9 NAL        -2.9760    0.0060    2.3010 na        1 39R     -0.427700
     10 NAK        -2.9500    0.7000    0.1650 nd        1 39R     -0.339000
     11 NAM        -4.2030    0.6760    0.5430 nd        1 39R     -0.339000
     12 CAR        -4.2830    0.2550    1.8530 cc        1 39R      0.415000
     13 CAO        -5.4840    0.0810    2.6580 ca        1 39R     -0.121500
     14 CAG        -6.7160   -0.1270    2.0210 ca        1 39R     -0.105500
     15 CAC        -7.8720   -0.2930    2.7810 ca        1 39R     -0.131500
     16 CAB        -7.8110   -0.2540    4.1740 ca        1 39R     -0.118000
     17 CAD        -6.5880   -0.0430    4.8100 ca        1 39R     -0.131500
     18 CAH        -5.4270    0.1270    4.0590 ca        1 39R     -0.105500
     19 H1         -0.6010   -0.1840   -0.9150 ha        1 39R      0.158000
     20 H2          1.5520   -0.3270   -2.0160 hn        1 39R      0.394800
     21 H3          3.0090   -0.2750   -1.2090 hn        1 39R      0.394800
     22 H4          3.1920   -0.1420    1.2270 ha        1 39R      0.135000
     23 H5          1.9790    0.3110    3.3340 ha        1 39R      0.133000
     24 H6         -0.4880    0.5340    3.3600 ha        1 39R      0.126000
     25 H7         -2.7000   -0.3300    3.1860 hn        1 39R      0.313700
     26 H8         -6.7710   -0.1560    0.9210 ha        1 39R      0.142000
     27 H9         -8.8370   -0.4550    2.2760 ha        1 39R      0.136500
     28 H10        -8.7260   -0.3870    4.7700 ha        1 39R      0.135000
     29 H11        -6.5380   -0.0050    5.9080 ha        1 39R      0.136500
     30 H12        -4.4750    0.3100    4.5770 ha        1 39R      0.142000
@<TRIPOS>BOND
     1    1    2 ar  
     2    1    7 ar  
     3    1   19 1   
     4    2    3 1   
     5    2    4 ar  
     6    3   20 1   
     7    3   21 1   
     8    4    5 ar  
     9    4   22 1   
    10    5    6 ar  
    11    5   23 1   
    12    6    7 ar  
    13    6   24 1   
    14    7    8 1   
    15    8    9 1   
    16    8   10 2   
    17    9   12 1   
    18    9   25 1   
    19   10   11 1   
    20   11   12 2   
    21   12   13 1   
    22   13   14 ar  
    23   13   18 ar  
    24   14   15 ar  
    25   14   26 1   
    26   15   16 ar  
    27   15   27 1   
    28   16   17 ar  
    29   16   28 1   
    30   17   18 ar  
    31   17   29 1   
    32   18   30 1   
@<TRIPOS>SUBSTRUCTURE
     1 39R         1 TEMP              0 ****  ****    0 ROOT
