@<TRIPOS>MOLECULE
39R
   30    32     1     0     0
SMALL
bcc


@<TRIPOS>ATOM
      1 CAJ        -0.0260   -0.0700    0.0150 ca        1 39R     -0.152000
      2 CAN         1.3830   -0.1960   -0.0060 ca        1 39R      0.142600
      3 NAA         2.0470   -0.5290   -1.1900 nh        1 39R     -0.820200
      4 CAF         2.0950   -0.0610    1.2090 ca        1 39R     -0.182000
      5 CAE         1.4130    0.1810    2.3950 ca        1 39R     -0.092000
      6 CAI         0.0260    0.3010    2.4140 ca        1 39R     -0.170000
      7 CAP        -0.6930    0.1720    1.2180 ca        1 39R     -0.084500
      8 CAQ        -2.1450    0.2980    1.2080 cc        1 39R      0.415000
      9 NAL        -2.9760    0.0040    2.3010 na        1 39R     -0.427700
     10 NAK        -2.9500    0.7110    0.1700 nd        1 39R     -0.339000
     11 NAM        -4.2030    0.6890    0.5480 nd        1 39R     -0.339000
     12 CAR        -4.2830    0.2590    1.8560 cc        1 39R      0.415000
     13 CAO        -5.4840    0.0830    2.6610 ca        1 39R     -0.121500
     14 CAG        -6.7160   -0.1220    2.0230 ca        1 39R     -0.105500
     15 CAC        -7.8720   -0.2900    2.7830 ca        1 39R     -0.131500
     16 CAB        -7.8110   -0.2560    4.1760 ca        1 39R     -0.118000
     17 CAD        -6.5870   -0.0470    4.8120 ca        1 39R     -0.131500
     18 CAH        -5.4260    0.1240    4.0610 ca        1 39R     -0.105500
     19 H1         -0.6040   -0.1660   -0.9180 ha        1 39R      0.158000
     20 H2          1.5480   -0.3040   -2.0220 hn        1 39R      0.394800
     21 H3          3.0050   -0.2630   -1.2160 hn        1 39R      0.394800
     22 H4          3.1910   -0.1530    1.2210 ha        1 39R      0.135000
     23 H5          1.9800    0.2850    3.3330 ha        1 39R      0.133000
     24 H6         -0.4860    0.5140    3.3620 ha        1 39R      0.126000
     25 H7         -2.7010   -0.3380    3.1840 hn        1 39R      0.313700
     26 H8         -6.7710   -0.1460    0.9230 ha        1 39R      0.142000
     27 H9         -8.8370   -0.4490    2.2790 ha        1 39R      0.136500
     28 H10        -8.7250   -0.3900    4.7720 ha        1 39R      0.135000
     29 H11        -6.5360   -0.0140    5.9100 ha        1 39R      0.136500
     30 H12        -4.4730    0.3050    4.5800 ha        1 39R      0.142000
@<TRIPOS>BOND
     1    1    2 ar  
     2    1    7 ar  
     3    1   19 1   
     4    2    3 1   
     5    2    4 ar  
     6    3   20 1   
     7    3   21 1   
     8    4    5 ar  
     9    4   22 1   
    10    5    6 ar  
    11    5   23 1   
    12    6    7 ar  
    13    6   24 1   
    14    7    8 1   
    15    8    9 1   
    16    8   10 2   
    17    9   12 1   
    18    9   25 1   
    19   10   11 1   
    20   11   12 2   
    21   12   13 1   
    22   13   14 ar  
    23   13   18 ar  
    24   14   15 ar  
    25   14   26 1   
    26   15   16 ar  
    27   15   27 1   
    28   16   17 ar  
    29   16   28 1   
    30   17   18 ar  
    31   17   29 1   
    32   18   30 1   
@<TRIPOS>SUBSTRUCTURE
     1 39R         1 TEMP              0 ****  ****    0 ROOT
