@<TRIPOS>MOLECULE
39R
   30    32     1     0     0
SMALL
bcc


@<TRIPOS>ATOM
      1 CAJ        -0.0290   -0.0730    0.0130 ca        1 39R     -0.152000
      2 CAN         1.3800   -0.2030   -0.0100 ca        1 39R      0.142600
      3 NAA         2.0420   -0.5350   -1.1950 nv        1 39R     -0.820200
      4 CAF         2.0940   -0.0710    1.2040 ca        1 39R     -0.182000
      5 CAE         1.4140    0.1710    2.3920 ca        1 39R     -0.092000
      6 CAI         0.0270    0.2940    2.4120 ca        1 39R     -0.170000
      7 CAP        -0.6930    0.1680    1.2170 ca        1 39R     -0.084500
      8 CAQ        -2.1450    0.2980    1.2090 cc        1 39R      0.415000
      9 NAL        -2.9760    0.0040    2.3020 na        1 39R     -0.427700
     10 NAK        -2.9500    0.7160    0.1710 nd        1 39R     -0.339000
     11 NAM        -4.2020    0.6960    0.5510 nd        1 39R     -0.339000
     12 CAR        -4.2830    0.2630    1.8580 cc        1 39R      0.415000
     13 CAO        -5.4830    0.0890    2.6640 ca        1 39R     -0.121500
     14 CAG        -6.7160   -0.1100    2.0260 ca        1 39R     -0.105500
     15 CAC        -7.8720   -0.2770    2.7870 ca        1 39R     -0.131500
     16 CAB        -7.8090   -0.2470    4.1800 ca        1 39R     -0.118000
     17 CAD        -6.5840   -0.0450    4.8160 ca        1 39R     -0.131500
     18 CAH        -5.4230    0.1250    4.0640 ca        1 39R     -0.105500
     19 H1         -0.6070   -0.1660   -0.9200 ha        1 39R      0.158000
     20 H2          1.5440   -0.3080   -2.0270 hn        1 39R      0.394800
     21 H3          3.0020   -0.2710   -1.2220 hn        1 39R      0.394800
     22 H4          3.1900   -0.1660    1.2150 ha        1 39R      0.135000
     23 H5          1.9830    0.2720    3.3290 ha        1 39R      0.133000
     24 H6         -0.4840    0.5060    3.3610 ha        1 39R      0.126000
     25 H7         -2.7000   -0.3410    3.1830 hn        1 39R      0.313700
     26 H8         -6.7730   -0.1320    0.9260 ha        1 39R      0.142000
     27 H9         -8.8380   -0.4320    2.2830 ha        1 39R      0.136500
     28 H10        -8.7230   -0.3810    4.7770 ha        1 39R      0.135000
     29 H11        -6.5320   -0.0150    5.9140 ha        1 39R      0.136500
     30 H12        -4.4700    0.3020    4.5830 ha        1 39R      0.142000
@<TRIPOS>BOND
     1    1    2 ar  
     2    1    7 ar  
     3    1   19 1   
     4    2    3 1   
     5    2    4 ar  
     6    3   20 1   
     7    3   21 1   
     8    4    5 ar  
     9    4   22 1   
    10    5    6 ar  
    11    5   23 1   
    12    6    7 ar  
    13    6   24 1   
    14    7    8 1   
    15    8    9 1   
    16    8   10 2   
    17    9   12 1   
    18    9   25 1   
    19   10   11 1   
    20   11   12 2   
    21   12   13 1   
    22   13   14 ar  
    23   13   18 ar  
    24   14   15 ar  
    25   14   26 1   
    26   15   16 ar  
    27   15   27 1   
    28   16   17 ar  
    29   16   28 1   
    30   17   18 ar  
    31   17   29 1   
    32   18   30 1   
@<TRIPOS>SUBSTRUCTURE
     1 39R         1 TEMP              0 ****  ****    0 ROOT
