@<TRIPOS>MOLECULE
39U
   27    28     1     0     0
SMALL
bcc


@<TRIPOS>ATOM
      1 C13        -0.1210   -0.1190   -0.0890 c3        1 39U     -0.090600
      2 C01         4.0160    0.0530    0.0340 cc        1 39U     -0.306000
      3 C02         2.9460    0.0930    0.9390 cd        1 39U      0.418600
      4 N03         2.9390    1.1880    1.7820 nd        1 39U     -0.696000
      5 S04         5.0480    1.3480    0.2640 ss        1 39U     -0.013300
      6 C05         4.0250    1.9610    1.5260 cc        1 39U      0.595300
      7 C06         4.1960   -1.0120   -0.9630 c         1 39U      0.749100
      8 N07         3.0720   -1.4290   -1.6530 ns        1 39U     -0.565900
      9 C08         1.9270   -0.9890    1.0420 c3        1 39U     -0.110700
     10 C09         1.0270   -1.1130   -0.1900 c3        1 39U     -0.072000
     11 O10         5.3000   -1.5400   -1.2100 o         1 39U     -0.640500
     12 N11         4.4050    3.0840    2.2580 nv        1 39U     -0.889500
     13 C12         1.7890   -0.8130   -1.5020 c3        1 39U      0.105000
     14 C14         0.4630   -2.5260   -0.2390 c3        1 39U     -0.090600
     15 H1         -0.7320   -0.1350   -1.0230 hc        1 39U      0.039867
     16 H2          0.2730    0.9140    0.0680 hc        1 39U      0.039867
     17 H3         -0.7810   -0.3810    0.7720 hc        1 39U      0.039867
     18 H4          3.1470   -2.2440   -2.2140 hn        1 39U      0.322500
     19 H5          1.2780   -0.8370    1.9460 hc        1 39U      0.069200
     20 H6          2.4850   -1.9550    1.1910 hc        1 39U      0.069200
     21 H7          4.6560    3.8590    1.6810 hn        1 39U      0.401800
     22 H8          3.7710    3.3390    2.9890 hn        1 39U      0.401800
     23 H9          1.9170    0.3070   -1.5740 h1        1 39U      0.052200
     24 H10         1.1410   -1.1450   -2.3630 h1        1 39U      0.052200
     25 H11        -0.2780   -2.6160   -1.0700 hc        1 39U      0.039867
     26 H12         1.2780   -3.2710   -0.4060 hc        1 39U      0.039867
     27 H13        -0.0500   -2.7690    0.7220 hc        1 39U      0.039867
@<TRIPOS>BOND
     1    1   10 1   
     2    1   15 1   
     3    1   16 1   
     4    1   17 1   
     5    2    3 2   
     6    2    5 1   
     7    2    7 1   
     8    3    4 1   
     9    3    9 1   
    10    4    6 2   
    11    5    6 1   
    12    6   12 1   
    13    7    8 1   
    14    7   11 2   
    15    8   13 1   
    16    8   18 1   
    17    9   10 1   
    18    9   19 1   
    19    9   20 1   
    20   10   13 1   
    21   10   14 1   
    22   12   21 1   
    23   12   22 1   
    24   13   23 1   
    25   13   24 1   
    26   14   25 1   
    27   14   26 1   
    28   14   27 1   
@<TRIPOS>SUBSTRUCTURE
     1 39U         1 TEMP              0 ****  ****    0 ROOT
