@<TRIPOS>MOLECULE
39U
   27    28     1     0     0
SMALL
bcc


@<TRIPOS>ATOM
      1 C13        -0.1170   -0.0980   -0.1230 c3        1 39U     -0.090600
      2 C01         4.0190    0.0360    0.0570 cc        1 39U     -0.306000
      3 C02         2.9370    0.0920    0.9460 cd        1 39U      0.418600
      4 N03         2.9280    1.1940    1.7810 nd        1 39U     -0.696000
      5 S04         5.0600    1.3220    0.2920 ss        1 39U     -0.013300
      6 C05         4.0250    1.9550    1.5340 cc        1 39U      0.595300
      7 C06         4.2030   -1.0380   -0.9290 c         1 39U      0.749100
      8 N07         3.0850   -1.4500   -1.6320 n         1 39U     -0.565900
      9 C08         1.9060   -0.9790    1.0420 c3        1 39U     -0.110700
     10 C09         1.0230   -1.1040   -0.2010 c3        1 39U     -0.072000
     11 O10         5.3050   -1.5780   -1.1570 o         1 39U     -0.640500
     12 N11         4.4050    3.0790    2.2640 nh        1 39U     -0.890500
     13 C12         1.8060   -0.8210   -1.5040 c3        1 39U      0.105000
     14 C14         0.4460   -2.5120   -0.2480 c3        1 39U     -0.090600
     15 H1          0.2840    0.9320    0.0310 hc        1 39U      0.039867
     16 H2         -0.7150   -0.1150   -1.0660 hc        1 39U      0.039867
     17 H3         -0.7920   -0.3480    0.7300 hc        1 39U      0.039867
     18 H4          3.1600   -2.2700   -2.1870 hn        1 39U      0.322500
     19 H5          1.2450   -0.8140    1.9360 hc        1 39U      0.069200
     20 H6          2.4530   -1.9500    1.2060 hc        1 39U      0.069200
     21 H7          3.7630    3.3460    2.9830 hn        1 39U      0.401800
     22 H8          4.6720    3.8480    1.6850 hn        1 39U      0.401800
     23 H9          1.9460    0.2970   -1.5830 h1        1 39U      0.052200
     24 H10         1.1670   -1.1530   -2.3720 h1        1 39U      0.052200
     25 H11        -0.0830   -2.7430    0.7080 hc        1 39U      0.039867
     26 H12        -0.2840   -2.6010   -1.0880 hc        1 39U      0.039867
     27 H13         1.2560   -3.2650   -0.3970 hc        1 39U      0.039867
@<TRIPOS>BOND
     1    1   10 1   
     2    1   15 1   
     3    1   16 1   
     4    1   17 1   
     5    2    3 2   
     6    2    5 1   
     7    2    7 1   
     8    3    4 1   
     9    3    9 1   
    10    4    6 2   
    11    5    6 1   
    12    6   12 1   
    13    7    8 1   
    14    7   11 2   
    15    8   13 1   
    16    8   18 1   
    17    9   10 1   
    18    9   19 1   
    19    9   20 1   
    20   10   13 1   
    21   10   14 1   
    22   12   21 1   
    23   12   22 1   
    24   13   23 1   
    25   13   24 1   
    26   14   25 1   
    27   14   26 1   
    28   14   27 1   
@<TRIPOS>SUBSTRUCTURE
     1 39U         1 TEMP              0 ****  ****    0 ROOT
