@<TRIPOS>MOLECULE
39U
   27    28     1     0     0
SMALL
bcc


@<TRIPOS>ATOM
      1 C13        -0.1180   -0.0950   -0.1120 c3        1 39U     -0.090600
      2 C01         4.0200    0.0340    0.0510 cc        1 39U     -0.306000
      3 C02         2.9420    0.0870    0.9460 cd        1 39U      0.418600
      4 N03         2.9370    1.1840    1.7860 nd        1 39U     -0.696000
      5 S04         5.0630    1.3180    0.2890 ss        1 39U     -0.013300
      6 C05         4.0340    1.9450    1.5390 cc        1 39U      0.595300
      7 C06         4.1990   -1.0350   -0.9410 c         1 39U      0.749100
      8 N07         3.0770   -1.4420   -1.6420 n         1 39U     -0.565900
      9 C08         1.9100   -0.9840    1.0410 c3        1 39U     -0.110700
     10 C09         1.0210   -1.1020   -0.2000 c3        1 39U     -0.072000
     11 O10         5.2990   -1.5750   -1.1760 o         1 39U     -0.640500
     12 N11         4.4180    3.0650    2.2740 nh        1 39U     -0.890500
     13 C12         1.8000   -0.8120   -1.5040 c3        1 39U      0.105000
     14 C14         0.4430   -2.5080   -0.2520 c3        1 39U     -0.090600
     15 H1         -0.7890   -0.3490    0.7430 hc        1 39U      0.039867
     16 H2         -0.7200   -0.1070   -1.0520 hc        1 39U      0.039867
     17 H3          0.2850    0.9340    0.0470 hc        1 39U      0.039867
     18 H4          3.1500   -2.2590   -2.2010 hn        1 39U      0.322500
     19 H5          2.4560   -1.9560    1.1970 hc        1 39U      0.069200
     20 H6          1.2530   -0.8240    1.9380 hc        1 39U      0.069200
     21 H7          3.7790    3.3280    2.9970 hn        1 39U      0.401800
     22 H8          4.6830    3.8360    1.6980 hn        1 39U      0.401800
     23 H9          1.9400    0.3060   -1.5780 h1        1 39U      0.052200
     24 H10         1.1560   -1.1390   -2.3710 h1        1 39U      0.052200
     25 H11        -0.0820   -2.7450    0.7040 hc        1 39U      0.039867
     26 H12        -0.2910   -2.5930   -1.0900 hc        1 39U      0.039867
     27 H13         1.2520   -3.2620   -0.4090 hc        1 39U      0.039867
@<TRIPOS>BOND
     1    1   10 1   
     2    1   15 1   
     3    1   16 1   
     4    1   17 1   
     5    2    3 2   
     6    2    5 1   
     7    2    7 1   
     8    3    4 1   
     9    3    9 1   
    10    4    6 2   
    11    5    6 1   
    12    6   12 1   
    13    7    8 1   
    14    7   11 2   
    15    8   13 1   
    16    8   18 1   
    17    9   10 1   
    18    9   19 1   
    19    9   20 1   
    20   10   13 1   
    21   10   14 1   
    22   12   21 1   
    23   12   22 1   
    24   13   23 1   
    25   13   24 1   
    26   14   25 1   
    27   14   26 1   
    28   14   27 1   
@<TRIPOS>SUBSTRUCTURE
     1 39U         1 TEMP              0 ****  ****    0 ROOT
