@<TRIPOS>MOLECULE
39X
   44    47     1     0     0
SMALL
bcc


@<TRIPOS>ATOM
      1 O3         -0.1770   -0.3070    0.0840 o         1 39X     -0.757800
      2 C21         1.0150   -0.0760   -0.1770 c         1 39X      0.937600
      3 O2          1.5930    0.0900   -1.2820 o         1 39X     -0.757800
      4 C20         1.9770    0.0370    1.1130 c3        1 39X     -0.065500
      5 C12         1.7000   -1.1530    2.0130 c3        1 39X     -0.107700
      6 C13         2.4490   -1.0930    3.3040 cc        1 39X      0.419800
      7 N3          3.7700   -0.8270    3.4290 nd        1 39X     -0.638100
      8 C15         4.0430   -0.8910    4.8060 ca        1 39X      0.063400
      9 C19         5.2320   -0.7030    5.5260 ca        1 39X     -0.052000
     10 C18         5.2030   -0.8320    6.9030 ca        1 39X     -0.179000
     11 C17         4.0000   -1.1480    7.5880 ca        1 39X      0.143900
     12 F1          4.0320   -1.2620    8.9380 f         1 39X     -0.137900
     13 C16         2.7900   -1.3440    6.9130 ca        1 39X     -0.170000
     14 C14         2.8200   -1.2130    5.5220 ca        1 39X     -0.050200
     15 N2          1.8280   -1.3410    4.5460 na        1 39X     -0.264300
     16 N1          3.3970    0.1370    0.6610 n4        1 39X     -0.644800
     17 C1          4.2220    1.2170    1.2800 c         1 39X      0.580700
     18 O1          3.6720    2.0870    1.9440 o         1 39X     -0.439100
     19 C2          5.6610    1.1520    0.9540 ca        1 39X     -0.182600
     20 C7          6.3940   -0.0490    1.1470 ca        1 39X     -0.110000
     21 C6          7.7320   -0.0870    0.8460 ca        1 39X     -0.108000
     22 C5          8.3990    1.0630    0.3400 ca        1 39X     -0.011000
     23 C11         9.7820    1.0410    0.0120 ca        1 39X     -0.125000
     24 C10        10.4010    2.1700   -0.4670 ca        1 39X     -0.102000
     25 C9          9.6700    3.3710   -0.6400 ca        1 39X     -0.121000
     26 C8          8.3330    3.4210   -0.3320 ca        1 39X     -0.105000
     27 C4          7.6670    2.2670    0.1650 ca        1 39X     -0.054000
     28 C3          6.2850    2.2920    0.4890 ca        1 39X     -0.033000
     29 H15         1.6990    0.9960    1.6340 hx        1 39X      0.117700
     30 H9          1.9570   -2.1170    1.4930 hc        1 39X      0.102700
     31 H10         0.5850   -1.1580    2.1820 hc        1 39X      0.102700
     32 H14         6.1670   -0.4550    5.0030 ha        1 39X      0.149000
     33 H13         6.1200   -0.6880    7.4950 ha        1 39X      0.152000
     34 H12         1.8700   -1.5860    7.4600 ha        1 39X      0.157000
     35 H11         0.8700   -1.5160    4.6980 hn        1 39X      0.317700
     36 H1          3.3400    0.3230   -0.3750 hn        1 39X      0.471300
     37 H4          5.8970   -0.9350    1.5730 ha        1 39X      0.153000
     38 H3          8.3130   -1.0100    0.9960 ha        1 39X      0.148000
     39 H8         10.3430    0.1040    0.1490 ha        1 39X      0.142000
     40 H7         11.4720    2.1560   -0.7230 ha        1 39X      0.142000
     41 H6         10.1900    4.2620   -1.0250 ha        1 39X      0.144000
     42 H5          7.7560    4.3500   -0.4630 ha        1 39X      0.143000
     43 H2          5.7220    3.2320    0.3640 ha        1 39X      0.156000
     44 H121        3.8720   -0.7590    0.7950 hn        1 39X      0.471300
@<TRIPOS>BOND
     1    1    2 1   
     2    2    3 1   
     3    2    4 1   
     4    4    5 1   
     5    4   16 1   
     6    4   29 1   
     7    5    6 1   
     8    5   30 1   
     9    5   31 1   
    10    6    7 2   
    11    6   15 1   
    12    7    8 1   
    13    8    9 ar  
    14    8   14 ar  
    15    9   10 ar  
    16    9   32 1   
    17   10   11 ar  
    18   10   33 1   
    19   11   12 1   
    20   11   13 ar  
    21   13   14 ar  
    22   13   34 1   
    23   14   15 1   
    24   15   35 1   
    25   16   17 1   
    26   16   36 1   
    27   16   44 1   
    28   17   18 2   
    29   17   19 1   
    30   19   20 ar  
    31   19   28 ar  
    32   20   21 ar  
    33   20   37 1   
    34   21   22 ar  
    35   21   38 1   
    36   22   23 ar  
    37   22   27 ar  
    38   23   24 ar  
    39   23   39 1   
    40   24   25 ar  
    41   24   40 1   
    42   25   26 ar  
    43   25   41 1   
    44   26   27 ar  
    45   26   42 1   
    46   27   28 ar  
    47   28   43 1   
@<TRIPOS>SUBSTRUCTURE
     1 39X         1 TEMP              0 ****  ****    0 ROOT
