@<TRIPOS>MOLECULE
39X
   44    47     1     0     0
SMALL
bcc


@<TRIPOS>ATOM
      1 O3         -0.1600   -0.3570    0.0590 o         1 39X     -0.757800
      2 C21         1.0320   -0.1190   -0.1960 c         1 39X      0.937600
      3 O2          1.6140    0.0460   -1.2980 o         1 39X     -0.757800
      4 C20         1.9860    0.0090    1.0990 c3        1 39X     -0.065500
      5 C12         1.7130   -1.1800    2.0030 c3        1 39X     -0.107700
      6 C13         2.4540   -1.1080    3.2970 cc        1 39X      0.419800
      7 N3          3.7720   -0.8310    3.4290 nd        1 39X     -0.638100
      8 C15         4.0380   -0.8870    4.8080 ca        1 39X      0.063400
      9 C19         5.2210   -0.6850    5.5340 ca        1 39X     -0.052000
     10 C18         5.1860   -0.8090    6.9110 ca        1 39X     -0.179000
     11 C17         3.9820   -1.1330    7.5910 ca        1 39X      0.143900
     12 F1          4.0060   -1.2410    8.9410 f         1 39X     -0.137900
     13 C16         2.7770   -1.3410    6.9100 ca        1 39X     -0.170000
     14 C14         2.8130   -1.2160    5.5180 ca        1 39X     -0.050200
     15 N2          1.8290   -1.3560    4.5380 na        1 39X     -0.264300
     16 N1          3.4080    0.1170    0.6540 n4        1 39X     -0.644800
     17 C1          4.2200    1.2070    1.2720 c         1 39X      0.580700
     18 O1          3.6600    2.0750    1.9300 o         1 39X     -0.439100
     19 C2          5.6610    1.1520    0.9540 ca        1 39X     -0.182600
     20 C7          6.4030   -0.0420    1.1570 ca        1 39X     -0.110000
     21 C6          7.7430   -0.0700    0.8640 ca        1 39X     -0.108000
     22 C5          8.4030    1.0820    0.3540 ca        1 39X     -0.011000
     23 C11         9.7880    1.0690    0.0330 ca        1 39X     -0.125000
     24 C10        10.4000    2.2000   -0.4510 ca        1 39X     -0.102000
     25 C9          9.6600    3.3940   -0.6340 ca        1 39X     -0.121000
     26 C8          8.3210    3.4350   -0.3330 ca        1 39X     -0.105000
     27 C4          7.6620    2.2780    0.1670 ca        1 39X     -0.054000
     28 C3          6.2790    2.2940    0.4850 ca        1 39X     -0.033000
     29 H15         1.6970    0.9670    1.6140 hx        1 39X      0.117700
     30 H9          0.5970   -1.1920    2.1660 hc        1 39X      0.102700
     31 H10         1.9800   -2.1440    1.4890 hc        1 39X      0.102700
     32 H14         6.1570   -0.4310    5.0150 ha        1 39X      0.149000
     33 H13         6.0980   -0.6550    7.5070 ha        1 39X      0.152000
     34 H12         1.8560   -1.5890    7.4520 ha        1 39X      0.157000
     35 H11         0.8710   -1.5380    4.6840 hn        1 39X      0.317700
     36 H1          3.3540    0.2970   -0.3830 hn        1 39X      0.471300
     37 H4          5.9120   -0.9290    1.5870 ha        1 39X      0.153000
     38 H3          8.3310   -0.9880    1.0220 ha        1 39X      0.148000
     39 H8         10.3550    0.1380    0.1780 ha        1 39X      0.142000
     40 H7         11.4720    2.1930   -0.7010 ha        1 39X      0.142000
     41 H6         10.1750    4.2870   -1.0220 ha        1 39X      0.144000
     42 H5          7.7370    4.3580   -0.4730 ha        1 39X      0.143000
     43 H2          5.7080    3.2290    0.3510 ha        1 39X      0.156000
     44 H121        3.8890   -0.7740    0.7960 hn        1 39X      0.471300
@<TRIPOS>BOND
     1    1    2 1   
     2    2    3 1   
     3    2    4 1   
     4    4    5 1   
     5    4   16 1   
     6    4   29 1   
     7    5    6 1   
     8    5   30 1   
     9    5   31 1   
    10    6    7 2   
    11    6   15 1   
    12    7    8 1   
    13    8    9 ar  
    14    8   14 ar  
    15    9   10 ar  
    16    9   32 1   
    17   10   11 ar  
    18   10   33 1   
    19   11   12 1   
    20   11   13 ar  
    21   13   14 ar  
    22   13   34 1   
    23   14   15 1   
    24   15   35 1   
    25   16   17 1   
    26   16   36 1   
    27   16   44 1   
    28   17   18 2   
    29   17   19 1   
    30   19   20 ar  
    31   19   28 ar  
    32   20   21 ar  
    33   20   37 1   
    34   21   22 ar  
    35   21   38 1   
    36   22   23 ar  
    37   22   27 ar  
    38   23   24 ar  
    39   23   39 1   
    40   24   25 ar  
    41   24   40 1   
    42   25   26 ar  
    43   25   41 1   
    44   26   27 ar  
    45   26   42 1   
    46   27   28 ar  
    47   28   43 1   
@<TRIPOS>SUBSTRUCTURE
     1 39X         1 TEMP              0 ****  ****    0 ROOT
