@<TRIPOS>MOLECULE
39Y
   23    22     1     0     0
SMALL
bcc


@<TRIPOS>ATOM
      1 O          -1.0020    0.1220    1.9280 os        1 39Y     -0.261000
      2 C8          0.0160   -0.1420    1.0630 c2        1 39Y      0.319000
      3 C9          1.4670    0.1570    1.3230 c3        1 39Y     -0.101000
      4 C10         1.8420    0.0630    2.7410 c1        1 39Y     -0.461000
      5 C11         3.0040   -0.3620    3.2000 c2        1 39Y     -0.302000
      6 C12         2.1720    2.3230    5.4650 cx        1 39Y     -0.220667
      7 C13        -0.6700    0.5600    3.2490 c3        1 39Y     -0.307000
      8 C14         3.4370    2.1230    6.2470 cx        1 39Y     -0.220667
      9 C15         2.1070    1.8160    6.8760 cx        1 39Y     -0.220667
     10 H14         2.0720   -0.5120    0.6480 hc        1 39Y      0.065500
     11 H15         1.6360    1.2170    0.9800 hc        1 39Y      0.065500
     12 H16         3.8400   -0.7280    2.5800 ha        1 39Y      0.037500
     13 H17         3.2220   -0.3820    4.2760 ha        1 39Y      0.037500
     14 H18         0.5740    0.4040    3.3960 h1        1 39Y      0.114333
     15 H21         1.8320    3.3510    5.2520 hc        1 39Y      0.109333
     16 H19        -1.2770   -0.0780    3.9310 h1        1 39Y      0.114333
     17 H20        -0.9880    1.6250    3.3240 h1        1 39Y      0.114333
     18 H23         1.9430    1.6250    4.6260 hc        1 39Y      0.109333
     19 H22         4.0030    3.0020    6.5980 hc        1 39Y      0.109333
     20 H26         4.1020    1.2860    5.9670 hc        1 39Y      0.109333
     21 H24         1.8250    0.7630    7.0480 hc        1 39Y      0.109333
     22 H25         1.7260    2.4800    7.6710 hc        1 39Y      0.109333
     23 OXT        -0.4090   -0.6120   -0.0100 o         1 39Y     -0.430000
@<TRIPOS>BOND
     1    1    2 1   
     2    1    7 1   
     3    2    3 1   
     4    2   23 1   
     5    3    4 1   
     6    3   10 1   
     7    3   11 1   
     8    4    5 1   
     9    5   12 1   
    10    5   13 1   
    11    6    8 1   
    12    6    9 1   
    13    6   15 1   
    14    6   18 1   
    15    7   14 1   
    16    7   16 1   
    17    7   17 1   
    18    8    9 1   
    19    8   19 1   
    20    8   20 1   
    21    9   21 1   
    22    9   22 1   
@<TRIPOS>SUBSTRUCTURE
     1 39Y         1 TEMP              0 ****  ****    0 ROOT
