@<TRIPOS>MOLECULE
39Y
   23    21     1     0     0
SMALL
bcc


@<TRIPOS>ATOM
      1 O           0.1960    0.2850   -1.2590 o         1 39Y     -0.208500
      2 C8          0.9920    1.1640   -1.3520 c1        1 39Y      0.418000
      3 C9          1.8370   -0.6140    1.6810 c2        1 39Y     -0.302000
      4 C10         1.2600   -0.2710    2.8330 c2        1 39Y     -0.110000
      5 C11         1.9860   -0.0480    4.1060 c3        1 39Y     -0.134000
      6 C12         1.5740    1.2320    4.8160 c3        1 39Y     -0.172000
      7 C13         0.1560    1.1630    5.3230 c3        1 39Y     -0.180000
      8 C14         2.5450    1.5360    6.0080 c3        1 39Y      0.086000
      9 C15         2.3030    2.7610    6.6900 c2        1 39Y     -0.880000
     10 H14         2.9190   -0.7610    1.5830 ha        1 39Y      0.091500
     11 H15         1.2620   -0.7660    0.7590 ha        1 39Y      0.091500
     12 H16         0.1670   -0.1260    2.8930 ha        1 39Y      0.109000
     13 H17         3.0930   -0.0210    3.9210 hc        1 39Y      0.071000
     14 H18         1.7860   -0.9220    4.7850 hc        1 39Y      0.071000
     15 H21         1.6610    2.0900    4.0970 hc        1 39Y      0.066000
     16 H19        -0.0200    2.0420    5.9950 hc        1 39Y      0.049333
     17 H20        -0.5880    1.1890    4.4880 hc        1 39Y      0.049333
     18 H23        -0.0140    0.2280    5.9100 hc        1 39Y      0.049333
     19 H22         2.4570    0.6390    6.6890 hc        1 39Y     -0.022500
     20 H26         3.5750    1.4990    5.5420 hc        1 39Y     -0.022500
     21 H24         1.6630    2.8000    7.5630 ha        1 39Y      0.044500
     22 H25         2.6980    3.6970    6.3120 ha        1 39Y      0.044500
     23 OXT         1.7820    2.0440   -1.4810 o         1 39Y     -0.208500
@<TRIPOS>BOND
     1    1    2 1   
     2    2   23 1   
     3    3    4 1   
     4    3   10 1   
     5    3   11 1   
     6    4    5 1   
     7    4   12 1   
     8    5    6 1   
     9    5   13 1   
    10    5   14 1   
    11    6    7 1   
    12    6    8 1   
    13    6   15 1   
    14    7   16 1   
    15    7   17 1   
    16    7   18 1   
    17    8    9 1   
    18    8   19 1   
    19    8   20 1   
    20    9   21 1   
    21    9   22 1   
@<TRIPOS>SUBSTRUCTURE
     1 39Y         1 TEMP              0 ****  ****    0 ROOT
