@<TRIPOS>MOLECULE
39Z
   30    32     1     0     0
SMALL
bcc


@<TRIPOS>ATOM
      1 C3         -0.1520   -0.2150    0.0370 c         1 39Z      0.663700
      2 C5          1.3790   -0.1780   -0.0560 cc        1 39Z     -0.161400
      3 C6          0.6080   -0.0290    2.1240 ca        1 39Z      0.048000
      4 C7          1.8310   -0.0710    1.2230 ca        1 39Z     -0.075000
      5 C8          3.1310   -0.0050    1.8100 ca        1 39Z     -0.224000
      6 C9          3.2380    0.0990    3.1650 ca        1 39Z      0.140100
      7 C10         2.0780    0.1500    4.0470 ca        1 39Z     -0.089000
      8 C11         0.8230    0.0880    3.5570 ca        1 39Z     -0.101000
      9 C19         2.1490   -0.2500   -1.3170 c3        1 39Z      0.072800
     10 C20         1.6400   -1.3700   -2.2100 c3        1 39Z     -0.091100
     11 C21         2.1390    1.0540   -2.0380 cc        1 39Z     -0.131600
     12 O4         -0.9530   -0.3280   -0.8830 o         1 39Z     -0.436100
     13 N1         -0.5210   -0.1050    1.4600 nc        1 39Z     -0.302400
     14 O12         4.4310    0.1680    3.8370 oh        1 39Z     -0.488100
     15 C26         1.9570    1.3040   -3.4090 cd        1 39Z     -0.172000
     16 C25         2.0810    2.7180   -3.6060 cd        1 39Z     -0.197000
     17 C24         2.3300    3.2920   -2.3510 cc        1 39Z     -0.158300
     18 N22         2.3750    2.2770   -1.4030 na        1 39Z     -0.176100
     19 H8          4.0110   -0.0500    1.1530 ha        1 39Z      0.147000
     20 H10         2.2820    0.2370    5.1260 ha        1 39Z      0.163000
     21 H11        -0.0640    0.1220    4.2110 ha        1 39Z      0.166000
     22 H19         3.2260   -0.4820   -1.0480 hc        1 39Z      0.057700
     23 H201        0.5910   -1.1650   -2.5350 hc        1 39Z      0.051700
     24 H202        1.6640   -2.3380   -1.6560 hc        1 39Z      0.051700
     25 H203        2.2890   -1.4560   -3.1150 hc        1 39Z      0.051700
     26 HO12        5.1510    0.1080    3.1910 ho        1 39Z      0.428000
     27 H26         1.7530    0.5630   -4.1750 ha        1 39Z      0.153000
     28 H25         1.9950    3.2460   -4.5500 ha        1 39Z      0.152000
     29 H24         2.4790    4.3350   -2.0730 h4        1 39Z      0.164000
     30 HN22        2.4810    2.3970   -0.4310 hn        1 39Z      0.291700
@<TRIPOS>BOND
     1    1    2 1   
     2    1   12 2   
     3    1   13 1   
     4    2    4 2   
     5    2    9 1   
     6    3    4 ar  
     7    3    8 ar  
     8    3   13 2   
     9    4    5 ar  
    10    5    6 ar  
    11    5   19 1   
    12    6    7 ar  
    13    6   14 1   
    14    7    8 ar  
    15    7   20 1   
    16    8   21 1   
    17    9   10 1   
    18    9   11 1   
    19    9   22 1   
    20   10   23 1   
    21   10   24 1   
    22   10   25 1   
    23   11   15 2   
    24   11   18 1   
    25   14   26 1   
    26   15   16 1   
    27   15   27 1   
    28   16   17 2   
    29   16   28 1   
    30   17   18 1   
    31   17   29 1   
    32   18   30 1   
@<TRIPOS>SUBSTRUCTURE
     1 39Z         1 TEMP              0 ****  ****    0 ROOT
