@<TRIPOS>MOLECULE
39Z
   30    26     1     0     0
SMALL
bcc


@<TRIPOS>ATOM
      1 C3         -1.8490   -0.5500    0.1380 c1        1 39Z      0.268000
      2 C5         -0.4510   -0.6010    0.1210 c2        1 39Z     -0.120000
      3 C6         -0.9560   -0.6470    2.3900 c1        1 39Z      0.047000
      4 C7          0.1770   -0.6630    1.4820 c1        1 39Z     -0.091000
      5 C8          1.4630   -0.7300    1.9860 c1        1 39Z     -0.166000
      6 C9          1.6720   -0.7830    3.3740 c1        1 39Z      0.075000
      7 C10         0.5610   -0.7680    4.2630 c1        1 39Z     -0.138000
      8 C11        -0.7460   -0.7000    3.7550 c1        1 39Z     -0.085000
      9 C19         0.3140   -0.0020   -1.0380 c3        1 39Z      0.018000
     10 C20         0.8740   -1.1120   -1.9010 c3        1 39Z     -0.208000
     11 C21        -0.6160    0.8590   -1.8650 c2        1 39Z     -0.103000
     12 O4         -2.5860   -0.8780   -0.7710 o         1 39Z     -0.199000
     13 N1         -2.1560   -0.5770    1.4750 n1        1 39Z     -0.162000
     14 O12         2.8770   -0.9550    4.0780 oh        1 39Z     -0.243000
     15 C26        -1.1250    0.3650   -3.1480 c1        1 39Z     -0.171000
     16 C25        -1.2530    1.4120   -4.0250 c1        1 39Z     -0.166000
     17 C24        -0.8360    2.6550   -3.3700 c1        1 39Z     -0.166000
     18 N22        -0.3990    2.3700   -1.9340 n2        1 39Z     -0.175000
     19 H8          2.2260   -0.7410    1.3770 ha        1 39Z      0.160000
     20 H10         0.7090   -0.8050    5.2270 ha        1 39Z      0.144000
     21 H11        -1.5070   -0.6890    4.3660 ha        1 39Z      0.165000
     22 H19         1.0470    0.5460   -0.6970 hc        1 39Z      0.103000
     23 H201        1.2310   -0.7320   -2.7310 hc        1 39Z      0.091333
     24 H202        0.1610   -1.7500   -2.1140 hc        1 39Z      0.091333
     25 H203        1.5910   -1.5720   -1.4160 hc        1 39Z      0.091333
     26 HO12        3.2400   -0.1600    4.2440 ho        1 39Z      0.224000
     27 H26        -0.8550   -0.5140   -3.4740 ha        1 39Z      0.154000
     28 H25        -1.0750    1.2770   -4.9750 ha        1 39Z      0.158000
     29 H24        -1.2840    3.4950   -3.5860 ha        1 39Z      0.158000
     30 HN22       -0.4490    2.9510   -1.2330 hn        1 39Z      0.245000
@<TRIPOS>BOND
     1    1    2 1   
     2    1   12 1   
     3    2    4 1   
     4    2    9 1   
     5    3    8 1   
     6    3   13 1   
     7    4    5 1   
     8    5   19 1   
     9    6    7 1   
    10    6   14 1   
    11    7   20 1   
    12    8   21 1   
    13    9   10 1   
    14    9   11 1   
    15    9   22 1   
    16   10   23 1   
    17   10   24 1   
    18   10   25 1   
    19   11   15 1   
    20   11   18 1   
    21   14   26 1   
    22   15   27 1   
    23   16   17 1   
    24   16   28 1   
    25   17   29 1   
    26   18   30 1   
@<TRIPOS>SUBSTRUCTURE
     1 39Z         1 TEMP              0 ****  ****    0 ROOT
