@<TRIPOS>MOLECULE
39Z
   30    32     1     0     0
SMALL
bcc


@<TRIPOS>ATOM
      1 C3         -0.1760   -0.2030    0.0640 c         1 39Z      0.663700
      2 C5          1.3550   -0.1610   -0.0270 cc        1 39Z     -0.161400
      3 C6          0.5780    0.0000    2.1510 ca        1 39Z      0.048000
      4 C7          1.8040   -0.0430    1.2530 ca        1 39Z     -0.075000
      5 C8          3.1020    0.0320    1.8420 ca        1 39Z     -0.224000
      6 C9          3.2050    0.1460    3.1960 ca        1 39Z      0.140100
      7 C10         2.0430    0.1980    4.0750 ca        1 39Z     -0.089000
      8 C11         0.7900    0.1280    3.5830 ca        1 39Z     -0.101000
      9 C19         2.1280   -0.2380   -1.2850 c3        1 39Z      0.072800
     10 C20         1.6260   -1.3660   -2.1710 c3        1 39Z     -0.091100
     11 C21         2.1140    1.0600   -2.0160 cc        1 39Z     -0.131600
     12 O4         -0.9740   -0.3260   -0.8580 o         1 39Z     -0.436100
     13 N1         -0.5490   -0.0850    1.4850 nc        1 39Z     -0.302400
     14 O12         4.3970    0.2250    3.8710 oh        1 39Z     -0.488100
     15 C26         1.9380    1.3000   -3.3900 cd        1 39Z     -0.172000
     16 C25         2.0550    2.7130   -3.5960 cd        1 39Z     -0.197000
     17 C24         2.2950    3.2970   -2.3440 cc        1 39Z     -0.158300
     18 N22         2.3410    2.2900   -1.3880 na        1 39Z     -0.176100
     19 H8          3.9840   -0.0140    1.1880 ha        1 39Z      0.147000
     20 H10         2.2440    0.2940    5.1550 ha        1 39Z      0.163000
     21 H11        -0.0980    0.1630    4.2350 ha        1 39Z      0.166000
     22 H19         3.2060   -0.4640   -1.0120 hc        1 39Z      0.057700
     23 H201        2.2770   -1.4560   -3.0740 hc        1 39Z      0.051700
     24 H202        0.5770   -1.1690   -2.5010 hc        1 39Z      0.051700
     25 H203        1.6520   -2.3310   -1.6110 hc        1 39Z      0.051700
     26 HO12        5.1190    0.1630    3.2270 ho        1 39Z      0.428000
     27 H26         1.7410    0.5520   -4.1510 ha        1 39Z      0.153000
     28 H25         1.9700    3.2330   -4.5440 ha        1 39Z      0.152000
     29 H24         2.4370    4.3430   -2.0730 h4        1 39Z      0.164000
     30 HN22        2.4420    2.4170   -0.4160 hn        1 39Z      0.291700
@<TRIPOS>BOND
     1    1    2 1   
     2    1   12 2   
     3    1   13 1   
     4    2    4 2   
     5    2    9 1   
     6    3    4 ar  
     7    3    8 ar  
     8    3   13 2   
     9    4    5 ar  
    10    5    6 ar  
    11    5   19 1   
    12    6    7 ar  
    13    6   14 1   
    14    7    8 ar  
    15    7   20 1   
    16    8   21 1   
    17    9   10 1   
    18    9   11 1   
    19    9   22 1   
    20   10   23 1   
    21   10   24 1   
    22   10   25 1   
    23   11   15 2   
    24   11   18 1   
    25   14   26 1   
    26   15   16 1   
    27   15   27 1   
    28   16   17 2   
    29   16   28 1   
    30   17   18 1   
    31   17   29 1   
    32   18   30 1   
@<TRIPOS>SUBSTRUCTURE
     1 39Z         1 TEMP              0 ****  ****    0 ROOT
