@<TRIPOS>MOLECULE
39Z
   30    32     1     0     0
SMALL
bcc


@<TRIPOS>ATOM
      1 C3         -0.1950   -4.0110    0.3310 c         1 39Z      0.666700
      2 C5         -1.1680   -4.2040   -0.8410 cc        1 39Z     -0.154400
      3 C6         -0.5700   -1.9870   -0.5230 ca        1 39Z      0.050000
      4 C7         -1.3900   -2.9610   -1.3510 ca        1 39Z     -0.083000
      5 C8         -2.1800   -2.4660   -2.4320 ca        1 39Z     -0.232000
      6 C9         -2.1740   -1.1280   -2.6930 ca        1 39Z      0.143100
      7 C10        -1.4010   -0.1740   -1.9070 ca        1 39Z     -0.091000
      8 C11        -0.6340   -0.5770   -0.8740 ca        1 39Z     -0.099000
      9 C19        -1.7380   -5.4970   -1.2780 c3        1 39Z      0.070800
     10 C20        -0.8020   -6.6600   -1.0080 c3        1 39Z     -0.090100
     11 C21        -3.0730   -5.7310   -0.6550 cc        1 39Z     -0.132600
     12 O4          0.2680   -4.8740    1.0650 o         1 39Z     -0.439100
     13 N1          0.1100   -2.5720    0.4340 nc        1 39Z     -0.302400
     14 O12        -2.8890   -0.5410   -3.7050 oh        1 39Z     -0.487100
     15 C26        -3.5980   -6.9120   -0.1040 cd        1 39Z     -0.173000
     16 C25        -4.9360   -6.6260    0.3230 cd        1 39Z     -0.197000
     17 C24        -5.1880   -5.2800    0.0250 cc        1 39Z     -0.159300
     18 N22        -4.0600   -4.7420   -0.5820 na        1 39Z     -0.178100
     19 H8         -2.7570   -3.1810   -3.0370 ha        1 39Z      0.148000
     20 H10        -1.4750    0.8850   -2.2040 ha        1 39Z      0.164000
     21 H11        -0.0410    0.1320   -0.2730 ha        1 39Z      0.167000
     22 H19        -1.8950   -5.4320   -2.4000 hc        1 39Z      0.060700
     23 H201        0.2030   -6.4480   -1.4440 hc        1 39Z      0.051700
     24 H202       -0.6850   -6.8270    0.0910 hc        1 39Z      0.051700
     25 H203       -1.2110   -7.5890   -1.4720 hc        1 39Z      0.051700
     26 HO12       -3.3490   -1.2360   -4.2000 ho        1 39Z      0.429000
     27 H26        -3.0820   -7.8630   -0.0150 ha        1 39Z      0.154000
     28 H25        -5.6240   -7.3230    0.7910 ha        1 39Z      0.152000
     29 H24        -6.0810   -4.6780    0.1950 h4        1 39Z      0.163000
     30 HN22       -3.9280   -3.7990   -0.8410 hn        1 39Z      0.293700
@<TRIPOS>BOND
     1    1    2 1   
     2    1   12 2   
     3    1   13 1   
     4    2    4 2   
     5    2    9 1   
     6    3    4 ar  
     7    3    8 ar  
     8    3   13 2   
     9    4    5 ar  
    10    5    6 ar  
    11    5   19 1   
    12    6    7 ar  
    13    6   14 1   
    14    7    8 ar  
    15    7   20 1   
    16    8   21 1   
    17    9   10 1   
    18    9   11 1   
    19    9   22 1   
    20   10   23 1   
    21   10   24 1   
    22   10   25 1   
    23   11   15 2   
    24   11   18 1   
    25   14   26 1   
    26   15   16 1   
    27   15   27 1   
    28   16   17 2   
    29   16   28 1   
    30   17   18 1   
    31   17   29 1   
    32   18   30 1   
@<TRIPOS>SUBSTRUCTURE
     1 39Z         1 TEMP              0 ****  ****    0 ROOT
