@<TRIPOS>MOLECULE
3A0
   22    22     1     0     0
SMALL
bcc


@<TRIPOS>ATOM
      1 N3          0.9300   -0.0080   -0.4880 n         1 3A0     -0.488800
      2 O4         -0.5100   -1.8060   -0.9140 o         1 3A0     -0.837300
      3 C21         2.2430    0.3420   -0.0180 c3        1 3A0      0.087000
      4 C22         0.6910   -1.4130   -0.8390 c         1 3A0      0.992600
      5 C33         2.4130    0.3890    1.5050 c3        1 3A0     -0.102400
      6 C34         1.3240    1.2020    2.1870 c3        1 3A0     -0.055700
      7 C35         1.5300    2.6870    1.9790 c3        1 3A0     -0.084100
      8 C36        -0.0470    0.7570    1.7010 c3        1 3A0     -0.102400
      9 C37        -0.1350    0.6980    0.1710 c3        1 3A0      0.087000
     10 H3          2.9810   -0.3970   -0.4410 h1        1 3A0      0.036200
     11 H41         2.4970    1.3670   -0.4220 h1        1 3A0      0.036200
     12 H42         2.3870   -0.6580    1.9060 hc        1 3A0      0.029200
     13 H7          3.4170    0.8230    1.7460 hc        1 3A0      0.029200
     14 H44         1.3820    1.0040    3.2960 hc        1 3A0      0.012700
     15 H43         1.4810    2.9390    0.8920 hc        1 3A0      0.022367
     16 H45         2.5270    3.0010    2.3710 hc        1 3A0      0.022367
     17 H46         0.7400    3.2690    2.5130 hc        1 3A0      0.022367
     18 H47        -0.8310    1.4600    2.0830 hc        1 3A0      0.029200
     19 H48        -0.2660   -0.2610    2.1170 hc        1 3A0      0.029200
     20 H49        -1.1130    0.2160   -0.1160 h1        1 3A0      0.036200
     21 H2         -0.1390    1.7620   -0.2130 h1        1 3A0      0.036200
     22 OXT         1.7000   -2.1370   -1.0900 o         1 3A0     -0.837300
@<TRIPOS>BOND
     1    1    3 1   
     2    1    4 1   
     3    1    9 1   
     4    2    4 1   
     5    3    5 1   
     6    3   10 1   
     7    3   11 1   
     8    4   22 1   
     9    5    6 1   
    10    5   12 1   
    11    5   13 1   
    12    6    7 1   
    13    6    8 1   
    14    6   14 1   
    15    7   15 1   
    16    7   16 1   
    17    7   17 1   
    18    8    9 1   
    19    8   18 1   
    20    8   19 1   
    21    9   20 1   
    22    9   21 1   
@<TRIPOS>SUBSTRUCTURE
     1 3A0         1 TEMP              0 ****  ****    0 ROOT
