@<TRIPOS>MOLECULE
3A0
   22    22     1     0     0
SMALL
bcc


@<TRIPOS>ATOM
      1 N3          0.4410    0.2490   -0.4730 n2        1 3A0     -0.980400
      2 O4          3.6020   -1.5060   -0.4150 o         1 3A0     -0.607000
      3 C21         1.7600    0.0990    0.0050 c3        1 3A0      0.200500
      4 C22         2.4060   -1.1900   -0.5140 c         1 3A0      0.639100
      5 C33         1.9440    0.0720    1.5470 c3        1 3A0     -0.103400
      6 C34         1.2000    1.2150    2.2170 c3        1 3A0     -0.038700
      7 C35         1.9030    2.5370    1.9910 c3        1 3A0     -0.081100
      8 C36        -0.2390    1.2630    1.7290 c3        1 3A0     -0.112400
      9 C37        -0.3090    1.2340    0.1870 c3        1 3A0      0.277800
     10 H3          0.7540   -1.8130   -1.2370 ho        1 3A0      0.461000
     11 H41         2.4680    0.9190   -0.3650 h1        1 3A0     -0.032300
     12 H42         3.0350    0.1230    1.7930 hc        1 3A0      0.020200
     13 H7          1.5480   -0.8970    1.9460 hc        1 3A0      0.020200
     14 H44         1.1920    1.0210    3.3300 hc        1 3A0     -0.004300
     15 H43         1.3630    3.3610    2.5170 hc        1 3A0      0.021367
     16 H45         2.9490    2.4940    2.3780 hc        1 3A0      0.021367
     17 H46         1.9360    2.7720    0.8990 hc        1 3A0      0.021367
     18 H47        -0.7890    0.3780    2.1400 hc        1 3A0      0.004700
     19 H48        -0.7410    2.1850    2.1170 hc        1 3A0      0.004700
     20 H49        -0.0400    2.2970   -0.1380 h1        1 3A0     -0.051800
     21 H2         -1.3910    1.0920   -0.1060 h1        1 3A0     -0.051800
     22 OXT         1.6680   -2.1400   -1.1590 oh        1 3A0     -0.627100
@<TRIPOS>BOND
     1    1    3 1   
     2    1    9 1   
     3    2    4 2   
     4    3    4 1   
     5    3    5 1   
     6    3   11 1   
     7    4   22 1   
     8    5    6 1   
     9    5   12 1   
    10    5   13 1   
    11    6    7 1   
    12    6    8 1   
    13    6   14 1   
    14    7   15 1   
    15    7   16 1   
    16    7   17 1   
    17    8    9 1   
    18    8   18 1   
    19    8   19 1   
    20    9   20 1   
    21    9   21 1   
    22   10   22 1   
@<TRIPOS>SUBSTRUCTURE
     1 3A0         1 TEMP              0 ****  ****    0 ROOT
