@<TRIPOS>MOLECULE
3A0
   22    22     1     0     0
SMALL
bcc


@<TRIPOS>ATOM
      1 N3          0.8880   -0.4210    0.0110 n         1 3A0     -0.507800
      2 O4         -0.4910   -1.2330   -1.6890 o         1 3A0     -0.837300
      3 C21         2.2180    0.0300    0.3160 c3        1 3A0      0.098000
      4 C22         0.6930   -1.1380   -1.2490 c         1 3A0      1.003600
      5 C33         2.4010    0.4030    1.7910 c3        1 3A0     -0.080400
      6 C34         1.3340    1.3690    2.2840 c3        1 3A0     -0.056700
      7 C35         1.5700    2.7680    1.7550 c3        1 3A0     -0.086100
      8 C36        -0.0510    0.8610    1.9110 c3        1 3A0     -0.080400
      9 C37        -0.1540    0.4740    0.4320 c3        1 3A0      0.098000
     10 H3          2.9330   -0.7980    0.0460 h1        1 3A0      0.025200
     11 H41         2.5020    0.9350   -0.3030 h1        1 3A0      0.025200
     12 H42         2.3610   -0.5270    2.4160 hc        1 3A0      0.024200
     13 H7          3.4160    0.8600    1.9230 hc        1 3A0      0.024200
     14 H44         1.3980    1.4150    3.4090 hc        1 3A0      0.011700
     15 H43         0.7970    3.4700    2.1520 hc        1 3A0      0.025033
     16 H45         2.5770    3.1370    2.0650 hc        1 3A0      0.025033
     17 H46         1.5170    2.7760    0.6390 hc        1 3A0      0.025033
     18 H47        -0.8160    1.6510    2.1290 hc        1 3A0      0.024200
     19 H48        -0.2900   -0.0320    2.5450 hc        1 3A0      0.024200
     20 H49        -1.1410   -0.0360    0.2450 h1        1 3A0      0.025200
     21 H2         -0.1510    1.4310   -0.1730 h1        1 3A0      0.025200
     22 OXT         1.7150   -1.6450   -1.7970 o         1 3A0     -0.837300
@<TRIPOS>BOND
     1    1    3 1   
     2    1    4 1   
     3    1    9 1   
     4    2    4 1   
     5    3    5 1   
     6    3   10 1   
     7    3   11 1   
     8    4   22 1   
     9    5    6 1   
    10    5   12 1   
    11    5   13 1   
    12    6    7 1   
    13    6    8 1   
    14    6   14 1   
    15    7   15 1   
    16    7   16 1   
    17    7   17 1   
    18    8    9 1   
    19    8   18 1   
    20    8   19 1   
    21    9   20 1   
    22    9   21 1   
@<TRIPOS>SUBSTRUCTURE
     1 3A0         1 TEMP              0 ****  ****    0 ROOT
