@<TRIPOS>MOLECULE
3A1
   82    78     1     0     0
SMALL
bcc


@<TRIPOS>ATOM
      1 C11         5.0690    1.5420    1.6150 c1        1 3A1      0.298000
      2 C7          6.5870    1.1690    1.5740 c2        1 3A1     -0.144000
      3 C1          7.0620    0.7650    2.9940 c2        1 3A1     -0.088000
      4 C2          6.9600   -0.5630    3.4150 c2        1 3A1     -0.116000
      5 C3          7.3600   -0.9200    4.7010 c1        1 3A1     -0.130000
      6 C4          7.8610    0.0470    5.5660 c1        1 3A1     -0.128500
      7 C5          7.9610    1.3600    5.1490 c1        1 3A1     -0.128500
      8 C6          7.5570    1.7200    3.8490 c1        1 3A1     -0.130000
      9 O12         4.5210    1.7750    2.6980 o         1 3A1     -0.358000
     10 N13         4.3670    1.7760    0.4060 n3        1 3A1     -0.319000
     11 C15         2.9660    1.8350    0.4140 c3        1 3A1     -0.685000
     12 C16         2.4880    2.9510   -0.5190 c3        1 3A1     -0.149000
     13 C17         2.7260    4.3300    0.1550 c2        1 3A1     -0.074000
     14 C18         1.8470    4.7850    1.1160 c2        1 3A1     -0.116000
     15 C19         1.9810    6.0750    1.6320 c1        1 3A1     -0.127000
     16 C20         2.9940    6.8950    1.1800 c1        1 3A1     -0.132000
     17 C21         3.8790    6.4390    0.2120 c1        1 3A1     -0.131000
     18 C22         3.7460    5.1590   -0.3000 c2        1 3A1     -0.124000
     19 P33         2.2790    0.2360   -0.1570 p5        1 3A1      2.806000
     20 O36         2.4900    0.0980   -1.6970 oh        1 3A1     -0.834000
     21 C37         0.4800    0.1780    0.2190 c3        1 3A1     -0.929000
     22 C39        -0.0450   -1.2250   -0.0300 c3        1 3A1     -0.111000
     23 C40         0.1240   -2.0410    1.2090 c3        1 3A1     -0.215000
     24 C45        -1.5500   -1.1590   -0.4100 c2        1 3A1      0.293000
     25 O46        -2.2000   -0.1370   -0.1820 o         1 3A1     -0.381000
     26 OP3         2.9760   -0.8880    0.5450 o         1 3A1     -1.134000
     27 N48        -2.1860   -2.2970   -1.0520 n         1 3A1     -0.332000
     28 C50        -3.5690   -2.2100   -1.4770 c3        1 3A1     -0.016000
     29 C67        -4.4530   -2.4550   -0.3300 c2        1 3A1      0.267000
     30 O68        -4.0790   -3.1640    0.5830 o         1 3A1     -0.426000
     31 C52        -3.8370   -3.2600   -2.5590 c3        1 3A1     -0.160000
     32 C53        -3.9140   -2.5670   -3.9410 c3        1 3A1     -0.153000
     33 C54        -4.7460   -3.4760   -4.9430 c3        1 3A1     -0.200000
     34 C55        -5.1580   -2.6490   -6.1690 c3        1 3A1     -0.091000
     35 N56        -6.1240   -3.3890   -6.9400 n3        1 3A1     -0.339000
     36 N70        -5.7240   -1.7700   -0.2400 n         1 3A1     -0.321000
     37 C72        -6.3880   -1.6600    1.0150 c3        1 3A1     -0.106000
     38 C79        -6.2220   -0.2600    1.5530 c2        1 3A1      0.335000
     39 O81        -6.8550    0.7040    1.0160 o         1 3A1     -0.560500
     40 O80        -5.5570   -0.0650    2.6190 o         1 3A1     -0.560500
     41 C74        -7.8580   -1.9540    0.8350 c3        1 3A1     -0.002000
     42 O75        -8.5770   -1.5380    2.0110 oh        1 3A1     -0.368000
     43 H7          7.1170    1.9600    1.2570 ha        1 3A1      0.127000
     44 H7A         6.7250    0.4020    0.9450 ha        1 3A1      0.127000
     45 H2          6.6130   -1.2290    2.8210 ha        1 3A1      0.137000
     46 H3          7.2890   -1.8630    4.9990 ha        1 3A1      0.132000
     47 H4          8.0530   -0.1820    6.4860 ha        1 3A1      0.133000
     48 H5          8.3640    2.0290    5.7380 ha        1 3A1      0.133000
     49 H6          7.7670    2.6730    3.8020 ha        1 3A1      0.144000
     50 HN13        4.8110    1.9220   -0.3400 hn        1 3A1      0.223000
     51 H15         2.6580    2.0150    1.3160 h1        1 3A1      0.164000
     52 H16         3.0060    2.9060   -1.4000 hc        1 3A1      0.115000
     53 H16A        1.5140    2.8340   -0.7000 hc        1 3A1      0.115000
     54 H18         1.1040    4.1990    1.4260 ha        1 3A1      0.137000
     55 H19         1.4370    6.3520    2.3710 ha        1 3A1      0.133000
     56 H20         3.0910    7.8270    1.5530 ha        1 3A1      0.128000
     57 H21         4.6120    7.0340   -0.1140 DU        1 3A1      0.129000
     58 H22         4.3430    4.8530   -1.0210 ha        1 3A1      0.133000
     59 HO36        3.1260   -0.4790   -1.8520 ho        1 3A1      0.274000
     60 H37         0.0080    0.8080   -0.3540 hc        1 3A1      0.168500
     61 H37A        0.3380    0.4130    1.1390 hc        1 3A1      0.168500
     62 H39         0.4570   -1.6370   -0.7620 hc        1 3A1      0.146000
     63 H40         0.8300   -2.7190    1.0640 hc        1 3A1      0.090000
     64 H40A       -0.7290   -2.4950    1.4270 hc        1 3A1      0.090000
     65 H40B        0.3800   -1.4560    1.9500 hc        1 3A1      0.090000
     66 HN48       -1.6920   -3.0330   -1.2640 hn        1 3A1      0.236000
     67 H50        -3.7440   -1.3190   -1.8370 h1        1 3A1      0.138000
     68 H52        -4.6960   -3.7190   -2.3710 hc        1 3A1      0.096000
     69 H52A       -3.0960   -3.9290   -2.5630 hc        1 3A1      0.096000
     70 H53        -4.3570   -1.6920   -3.8450 hc        1 3A1      0.087000
     71 H53A       -2.9950   -2.4360   -4.2970 hc        1 3A1      0.087000
     72 H54        -5.5640   -3.8170   -4.4830 hc        1 3A1      0.079000
     73 H54A       -4.2040   -4.2180   -5.2250 hc        1 3A1      0.079000
     74 H55        -5.5470   -1.8120   -5.8790 h1        1 3A1      0.090000
     75 H33        -4.3760   -2.4700   -6.7170 h1        1 3A1      0.090000
     76 HN56       -6.5320   -3.9810   -6.4160 hn        1 3A1      0.135000
     77 H35        -5.6960   -3.8320   -7.6290 hn        1 3A1      0.135000
     78 HN70       -6.1260   -1.4230   -1.0150 hn        1 3A1      0.255000
     79 H72        -6.0070   -2.2950    1.6400 h1        1 3A1      0.102000
     80 H74        -7.9870   -2.9400    0.6940 h1        1 3A1      0.068000
     81 H74A       -8.1940   -1.4680    0.0590 h1        1 3A1      0.068000
     82 HO75       -9.3420   -1.9760    2.0580 ho        1 3A1      0.243000
@<TRIPOS>BOND
     1    1    9 1   
     2    1   10 1   
     3    2    3 1   
     4    2   43 1   
     5    2   44 1   
     6    3    4 1   
     7    3    8 1   
     8    4    5 1   
     9    4   45 1   
    10    5   46 1   
    11    6    7 1   
    12    6   47 1   
    13    7   48 1   
    14    8   49 1   
    15   10   11 1   
    16   10   50 1   
    17   11   12 1   
    18   11   19 1   
    19   11   51 1   
    20   12   13 1   
    21   12   52 1   
    22   12   53 1   
    23   13   14 1   
    24   13   18 1   
    25   14   15 1   
    26   14   54 1   
    27   15   55 1   
    28   16   17 1   
    29   16   56 1   
    30   17   18 1   
    31   18   58 1   
    32   19   20 1   
    33   19   21 1   
    34   19   26 1   
    35   20   59 1   
    36   21   22 1   
    37   21   60 1   
    38   21   61 1   
    39   22   23 1   
    40   22   24 1   
    41   22   62 1   
    42   23   63 1   
    43   23   64 1   
    44   23   65 1   
    45   24   25 1   
    46   24   27 1   
    47   27   28 1   
    48   27   66 1   
    49   28   29 1   
    50   28   31 1   
    51   28   67 1   
    52   29   30 1   
    53   29   36 1   
    54   31   32 1   
    55   31   68 1   
    56   31   69 1   
    57   32   33 1   
    58   32   70 1   
    59   32   71 1   
    60   33   34 1   
    61   33   72 1   
    62   33   73 1   
    63   34   35 1   
    64   34   74 1   
    65   34   75 1   
    66   35   76 1   
    67   35   77 1   
    68   36   37 1   
    69   36   78 1   
    70   37   38 1   
    71   37   41 1   
    72   37   79 1   
    73   38   39 1   
    74   38   40 1   
    75   41   42 1   
    76   41   80 1   
    77   41   81 1   
    78   42   82 1   
@<TRIPOS>SUBSTRUCTURE
     1 3A1         1 TEMP              0 ****  ****    0 ROOT
