@<TRIPOS>MOLECULE
3A1
   82    83     1     0     0
SMALL
bcc


@<TRIPOS>ATOM
      1 C11        -4.0080    1.4980   -0.8990 c         1 3A1      0.650100
      2 C7         -5.0600    1.2900   -1.9760 c3        1 3A1     -0.108100
      3 C1         -6.1970    0.4340   -1.5490 ca        1 3A1     -0.097300
      4 C2         -7.3560    1.0170   -1.0220 ca        1 3A1     -0.121000
      5 C3         -8.4320    0.2170   -0.6400 ca        1 3A1     -0.126500
      6 C4         -8.3600   -1.1690   -0.7810 ca        1 3A1     -0.127000
      7 C5         -7.2090   -1.7540   -1.3070 ca        1 3A1     -0.126500
      8 C6         -6.1320   -0.9580   -1.6910 ca        1 3A1     -0.121000
      9 O12        -3.4840    2.6160   -0.7350 o         1 3A1     -0.595100
     10 N13        -3.5590    0.3710   -0.2110 n         1 3A1     -0.528900
     11 C15        -2.7150    0.5000    0.9530 c3        1 3A1     -0.201500
     12 C16        -3.3990    0.2860    2.3030 c3        1 3A1     -0.069100
     13 C17        -4.5360    1.1850    2.6200 ca        1 3A1     -0.074300
     14 C18        -4.5180    2.5450    2.2900 ca        1 3A1     -0.123500
     15 C19        -5.5770    3.3740    2.6590 ca        1 3A1     -0.131000
     16 C20        -6.6650    2.8540    3.3580 ca        1 3A1     -0.137000
     17 C21        -6.6930    1.4990    3.6860 ca        1 3A1     -0.131000
     18 C22        -5.6360    0.6690    3.3190 ca        1 3A1     -0.123500
     19 P33        -1.5500   -0.7150    0.8600 p5        1 3A1      1.500100
     20 O36        -0.7220   -0.5250    2.2250 oh        1 3A1     -0.813400
     21 C37        -0.4780   -0.2750   -0.3170 c3        1 3A1     -0.430600
     22 C39         0.4220   -1.4450   -0.6840 c3        1 3A1     -0.115700
     23 C40         0.3760   -1.7320   -2.1680 c3        1 3A1     -0.098100
     24 C45         1.8330   -1.2030   -0.1280 c         1 3A1      0.656100
     25 O46         1.9880   -1.2010    1.1190 o         1 3A1     -0.666100
     26 OP3        -2.1090   -2.0620    0.7680 o         1 3A1     -0.868300
     27 N48         2.8790   -1.0240   -0.9850 n         1 3A1     -0.528900
     28 C50         4.2170   -0.6840   -0.5480 c3        1 3A1      0.021700
     29 C67         4.8570    0.3310   -1.5430 c         1 3A1      0.633100
     30 O68         4.4950    0.3340   -2.7440 o         1 3A1     -0.663100
     31 C52         5.1650   -1.8920   -0.4690 c3        1 3A1     -0.091400
     32 C53         4.8600   -2.7600    0.7320 c3        1 3A1     -0.081400
     33 C54         5.6850   -4.0290    0.7090 c3        1 3A1     -0.082400
     34 C55         5.3600   -4.8870    1.9290 c3        1 3A1      0.154800
     35 N56         6.0850   -6.1370    1.9720 n3        1 3A1     -0.914800
     36 N70         5.7640    1.2020   -1.0210 n         1 3A1     -0.492900
     37 C72         6.5870    2.0730   -1.8310 c3        1 3A1     -0.086300
     38 C79         7.3240    3.1210   -0.9160 c         1 3A1      0.915600
     39 O81         7.9500    2.6570    0.0810 o         1 3A1     -0.820800
     40 O80         7.2630    4.3240   -1.2610 o         1 3A1     -0.820800
     41 C74         7.6660    1.3260   -2.6350 c3        1 3A1      0.128400
     42 O75         8.5140    0.5340   -1.8270 oh        1 3A1     -0.646800
     43 H7         -5.4300    2.3070   -2.2780 hc        1 3A1      0.083200
     44 H7A        -4.5460    0.8360   -2.8680 hc        1 3A1      0.083200
     45 H2         -7.4150    2.1090   -0.9050 ha        1 3A1      0.139000
     46 H3         -9.3370    0.6810   -0.2220 ha        1 3A1      0.134000
     47 H4         -9.2080   -1.7990   -0.4760 ha        1 3A1      0.130000
     48 H5         -7.1460   -2.8470   -1.4170 ha        1 3A1      0.134000
     49 H6         -5.2260   -1.4250   -2.1080 ha        1 3A1      0.139000
     50 HN13       -4.2000   -0.3960   -0.1500 hn        1 3A1      0.318500
     51 H15        -2.2700    1.5400    0.9510 h1        1 3A1      0.130700
     52 H16        -3.7330   -0.7890    2.3520 hc        1 3A1      0.084700
     53 H16A       -2.6030    0.4220    3.0910 hc        1 3A1      0.084700
     54 H18        -3.6720    2.9650    1.7200 ha        1 3A1      0.142500
     55 H19        -5.5500    4.4410    2.3940 ha        1 3A1      0.128500
     56 H20        -7.4970    3.5100    3.6510 ha        1 3A1      0.125000
     57 H21        -7.5500    1.0830    4.2360 ha        1 3A1      0.128500
     58 H22        -5.6630   -0.4000    3.5820 ha        1 3A1      0.142500
     59 HO36        0.1670   -0.8820    2.2680 ho        1 3A1      0.501000
     60 H37        -0.9960    0.0890   -1.2440 hc        1 3A1      0.119200
     61 H37A        0.1580    0.5960    0.0010 hc        1 3A1      0.119200
     62 H39         0.0490   -2.3730   -0.1490 hc        1 3A1      0.097700
     63 H40         1.0580   -2.5780   -2.4280 hc        1 3A1      0.047700
     64 H40A       -0.6620   -2.0230   -2.4610 hc        1 3A1      0.047700
     65 H40B        0.6660   -0.8340   -2.7670 hc        1 3A1      0.047700
     66 HN48        2.7230   -0.9610   -1.9690 hn        1 3A1      0.338500
     67 H50         4.1380   -0.2240    0.4840 h1        1 3A1      0.092700
     68 H52         5.0980   -2.4940   -1.4120 hc        1 3A1      0.062200
     69 H52A        6.2180   -1.5080   -0.3940 hc        1 3A1      0.062200
     70 H53         5.0740   -2.1860    1.6720 hc        1 3A1      0.049700
     71 H53A        3.7670   -3.0160    0.7530 hc        1 3A1      0.049700
     72 H54         5.4700   -4.6000   -0.2320 hc        1 3A1      0.045200
     73 H54A        6.7770   -3.7720    0.7020 hc        1 3A1      0.045200
     74 H55         5.6340   -4.3130    2.8600 h1        1 3A1      0.026700
     75 H33         4.2390   -5.0430    1.9570 h1        1 3A1      0.026700
     76 HN56        5.6790   -6.7470    2.6530 hn        1 3A1      0.341300
     77 H35         6.0710   -6.5900    1.0800 hn        1 3A1      0.341300
     78 HN70        6.0980    1.0680   -0.0890 hn        1 3A1      0.328500
     79 H72         5.9210    2.6170   -2.5570 h1        1 3A1      0.074700
     80 H74         7.2040    0.6070   -3.3640 h1        1 3A1      0.035200
     81 H74A        8.2760    2.0890   -3.1890 h1        1 3A1      0.035200
     82 HO75        8.7440    1.0650   -1.0450 ho        1 3A1      0.440000
@<TRIPOS>BOND
     1    1    2 1   
     2    1    9 2   
     3    1   10 1   
     4    2    3 1   
     5    2   43 1   
     6    2   44 1   
     7    3    4 ar  
     8    3    8 ar  
     9    4    5 ar  
    10    4   45 1   
    11    5    6 ar  
    12    5   46 1   
    13    6    7 ar  
    14    6   47 1   
    15    7    8 ar  
    16    7   48 1   
    17    8   49 1   
    18   10   11 1   
    19   10   50 1   
    20   11   12 1   
    21   11   19 1   
    22   11   51 1   
    23   12   13 1   
    24   12   52 1   
    25   12   53 1   
    26   13   14 ar  
    27   13   18 ar  
    28   14   15 ar  
    29   14   54 1   
    30   15   16 ar  
    31   15   55 1   
    32   16   17 ar  
    33   16   56 1   
    34   17   18 ar  
    35   17   57 1   
    36   18   58 1   
    37   19   20 1   
    38   19   21 1   
    39   19   26 2   
    40   20   59 1   
    41   21   22 1   
    42   21   60 1   
    43   21   61 1   
    44   22   23 1   
    45   22   24 1   
    46   22   62 1   
    47   23   63 1   
    48   23   64 1   
    49   23   65 1   
    50   24   25 2   
    51   24   27 1   
    52   27   28 1   
    53   27   66 1   
    54   28   29 1   
    55   28   31 1   
    56   28   67 1   
    57   29   30 2   
    58   29   36 1   
    59   31   32 1   
    60   31   68 1   
    61   31   69 1   
    62   32   33 1   
    63   32   70 1   
    64   32   71 1   
    65   33   34 1   
    66   33   72 1   
    67   33   73 1   
    68   34   35 1   
    69   34   74 1   
    70   34   75 1   
    71   35   76 1   
    72   35   77 1   
    73   36   37 1   
    74   36   78 1   
    75   37   38 1   
    76   37   41 1   
    77   37   79 1   
    78   38   39 1   
    79   38   40 1   
    80   41   42 1   
    81   41   80 1   
    82   41   81 1   
    83   42   82 1   
@<TRIPOS>SUBSTRUCTURE
     1 3A1         1 TEMP              0 ****  ****    0 ROOT
