@<TRIPOS>MOLECULE
3A2
   86    86     1     0     0
SMALL
bcc


@<TRIPOS>ATOM
      1 N1         -3.2490   -6.4730   -7.4710 n3        1 3A2     -0.322000
      2 C2         -1.8700   -6.2520   -7.1620 c3        1 3A2     -0.092000
      3 C3         -1.7120   -6.0550   -5.6520 c2        1 3A2      0.263000
      4 O4         -2.6960   -6.0200   -4.9390 o         1 3A2     -0.397000
      5 N5         -0.3880   -5.9420   -5.0700 n         1 3A2     -0.319000
      6 C6         -0.0360   -5.7670   -3.5370 c3        1 3A2      0.008000
      7 C10        -0.4370   -4.3740   -3.0760 c2        1 3A2      0.290000
      8 O11        -0.8710   -3.5810   -3.8700 o         1 3A2     -0.361000
      9 C7          1.2900   -5.9940   -3.5370 c3        1 3A2     -0.165000
     10 C8          1.8280   -5.5900   -4.9780 c3        1 3A2     -0.168000
     11 C9          0.9440   -5.9680   -5.8230 c3        1 3A2     -0.026000
     12 N12        -0.4330   -4.0540   -1.6640 n         1 3A2     -0.315000
     13 C13        -0.7890   -2.7340   -1.2280 c3        1 3A2     -0.692000
     14 C14        -1.3780   -2.8070    0.1590 c3        1 3A2     -0.161000
     15 C15        -2.8020   -3.3620    0.0810 c2        1 3A2     -0.071000
     16 C16        -3.1080   -4.5600    0.6960 c2        1 3A2     -0.148000
     17 C17        -4.4160   -5.0270    0.6950 c1        1 3A2     -0.165000
     18 C18        -5.4160   -4.2890    0.0750 c1        1 3A2     -0.144000
     19 C19        -5.1090   -3.0870   -0.5420 c1        1 3A2     -0.130000
     20 C20        -3.8040   -2.6220   -0.5400 c2        1 3A2     -0.096000
     21 P21         0.6890   -1.6880   -1.2020 p5        1 3A2      2.820000
     22 O22         1.8980   -2.4940   -0.5540 oh        1 3A2     -0.832000
     23 O23         1.0370   -1.3030   -2.5650 o         1 3A2     -1.161000
     24 C24         0.3600   -0.1920   -0.2150 c3        1 3A2     -0.944000
     25 C25         1.7180    0.4720    0.1980 c3        1 3A2     -0.150000
     26 C26         1.4730    1.4740    1.3410 c2        1 3A2      0.322000
     27 O27         0.3390    1.7650    1.6570 o         1 3A2     -0.380000
     28 N28         2.6390    2.0050    2.1460 n         1 3A2     -0.342000
     29 C29         2.5570    2.9510    3.4230 c3        1 3A2      0.007000
     30 C33         2.1240    4.3130    3.0060 c2        1 3A2      0.284000
     31 O34         2.2970    4.6790    1.8650 o         1 3A2     -0.413000
     32 C30         3.8150    2.8860    3.8890 c3        1 3A2     -0.164000
     33 C31         4.7610    2.5770    2.6400 c3        1 3A2     -0.169000
     34 C32         4.1290    1.7430    1.8920 c3        1 3A2     -0.018000
     35 N35         1.4760    5.1620    3.9290 n         1 3A2     -0.317000
     36 C36         0.8570    6.3680    3.4740 c3        1 3A2     -0.054000
     37 C41        -0.3880    6.0370    2.7390 c2        1 3A2      0.327000
     38 O43        -1.3040    5.4020    3.3150 o         1 3A2     -0.589000
     39 C37         0.5170    7.2660    4.6840 c3        1 3A2     -0.142000
     40 C38         0.0800    8.6870    4.1760 c3        1 3A2     -0.170000
     41 C39        -0.8220    9.3600    5.2390 c3        1 3A2     -0.155000
     42 C40        -1.5990   10.5120    4.6020 c3        1 3A2     -0.206000
     43 O42        -0.5500    6.4430    1.5670 o         1 3A2     -0.589000
     44 HN1        -3.3870   -7.3610   -7.6230 hn        1 3A2      0.156500
     45 H43        -3.4750   -5.9960   -8.2200 hn        1 3A2      0.156500
     46 H2         -1.3420   -7.0290   -7.4480 h1        1 3A2      0.113000
     47 H44        -1.5530   -5.4510   -7.6310 h1        1 3A2      0.113000
     48 H6         -0.4880   -6.3170   -2.8980 h1        1 3A2      0.131000
     49 H7          1.4680   -6.9520   -3.3670 hc        1 3A2      0.111500
     50 H7A         1.7310   -5.4370   -2.8400 hc        1 3A2      0.111500
     51 H8          2.6790   -6.0440   -5.1580 hc        1 3A2      0.092500
     52 H8A         1.9460   -4.6200   -5.0310 hc        1 3A2      0.092500
     53 H9          0.9150   -5.3450   -6.5890 h1        1 3A2      0.084500
     54 H9A         1.1400   -6.8780   -6.1320 h1        1 3A2      0.084500
     55 HN12       -0.1090   -4.6700   -1.0510 hn        1 3A2      0.239000
     56 H13        -1.4570   -2.3460   -1.8520 h1        1 3A2      0.177000
     57 H14        -1.3990   -1.9120    0.5520 hc        1 3A2      0.135500
     58 H14A       -0.8280   -3.3970    0.7170 hc        1 3A2      0.135500
     59 H16        -2.4060   -5.0570    1.1850 ha        1 3A2      0.120000
     60 H17        -4.6150   -5.9100    1.0520 ha        1 3A2      0.106000
     61 H18        -6.3370   -4.6170    0.0740 ha        1 3A2      0.112000
     62 H19        -5.8270   -2.5480   -0.9610 DU        1 3A2      0.140000
     63 H20        -3.5880   -1.7810   -0.9730 ha        1 3A2      0.225000
     64 HO22        2.6210   -2.3980   -1.0570 ho        1 3A2      0.263000
     65 H24        -0.1380   -0.4340    0.5830 hc        1 3A2      0.200500
     66 H24A       -0.1670    0.4460   -0.7510 hc        1 3A2      0.200500
     67 H25         2.0990    0.9430   -0.5730 hc        1 3A2      0.117000
     68 H25A        2.3380   -0.2160    0.4970 hc        1 3A2      0.117000
     69 H29         1.8930    2.7360    4.1290 h1        1 3A2      0.126000
     70 H30         3.8890    2.1730    4.5460 hc        1 3A2      0.104500
     71 H30A        4.0680    3.7480    4.2970 hc        1 3A2      0.104500
     72 H31         5.6070    2.1780    2.9490 hc        1 3A2      0.087000
     73 H31A        4.9420    3.4020    2.1430 hc        1 3A2      0.087000
     74 H32         4.3580    0.8260    2.1430 h1        1 3A2      0.086000
     75 H32A        4.3440    1.9000    0.9600 h1        1 3A2      0.086000
     76 HN35        1.4180    4.9230    4.7980 hn        1 3A2      0.239000
     77 H36         1.4690    6.8440    2.8770 h1        1 3A2      0.117000
     78 H37        -0.2250    6.8560    5.2010 hc        1 3A2      0.073000
     79 H37A        1.3050    7.3530    5.2570 hc        1 3A2      0.073000
     80 H38         0.8830    9.2440    4.0240 hc        1 3A2      0.100000
     81 H38A       -0.4200    8.5950    3.3310 hc        1 3A2      0.100000
     82 H39        -1.4590    8.6950    5.5990 hc        1 3A2      0.068500
     83 H39A       -0.2610    9.7080    5.9710 hc        1 3A2      0.068500
     84 H40        -0.9890   11.2600    4.4290 hc        1 3A2      0.063667
     85 H40A       -2.3020   10.8020    5.2090 hc        1 3A2      0.063667
     86 H40B       -1.9950   10.2140    3.7640 hc        1 3A2      0.063667
@<TRIPOS>BOND
     1    1    2 1   
     2    1   44 1   
     3    1   45 1   
     4    2    3 1   
     5    2   46 1   
     6    2   47 1   
     7    3    4 1   
     8    3    5 1   
     9    5    6 1   
    10    5   11 1   
    11    6    7 1   
    12    6    9 1   
    13    6   48 1   
    14    7    8 1   
    15    7   12 1   
    16    9   10 1   
    17    9   49 1   
    18    9   50 1   
    19   10   11 1   
    20   10   51 1   
    21   10   52 1   
    22   11   53 1   
    23   11   54 1   
    24   12   13 1   
    25   12   55 1   
    26   13   14 1   
    27   13   21 1   
    28   13   56 1   
    29   14   15 1   
    30   14   57 1   
    31   14   58 1   
    32   15   16 1   
    33   15   20 1   
    34   16   17 1   
    35   16   59 1   
    36   17   60 1   
    37   18   19 1   
    38   18   61 1   
    39   19   20 1   
    40   20   63 1   
    41   21   22 1   
    42   21   23 1   
    43   21   24 1   
    44   22   64 1   
    45   24   25 1   
    46   24   65 1   
    47   24   66 1   
    48   25   26 1   
    49   25   67 1   
    50   25   68 1   
    51   26   27 1   
    52   26   28 1   
    53   28   29 1   
    54   28   34 1   
    55   29   30 1   
    56   29   32 1   
    57   29   69 1   
    58   30   31 1   
    59   30   35 1   
    60   32   33 1   
    61   32   70 1   
    62   32   71 1   
    63   33   34 1   
    64   33   72 1   
    65   33   73 1   
    66   34   74 1   
    67   34   75 1   
    68   35   36 1   
    69   35   76 1   
    70   36   37 1   
    71   36   39 1   
    72   36   77 1   
    73   37   38 1   
    74   37   43 1   
    75   39   40 1   
    76   39   78 1   
    77   39   79 1   
    78   40   41 1   
    79   40   80 1   
    80   40   81 1   
    81   41   42 1   
    82   41   82 1   
    83   41   83 1   
    84   42   84 1   
    85   42   85 1   
    86   42   86 1   
@<TRIPOS>SUBSTRUCTURE
     1 3A2         1 TEMP              0 ****  ****    0 ROOT
