@<TRIPOS>MOLECULE
3A2
   86    88     1     0     0
SMALL
bcc


@<TRIPOS>ATOM
      1 N1         -6.8850    1.8920   -0.8490 n3        1 3A2     -0.891800
      2 C2         -6.3500    0.7550   -1.5430 c3        1 3A2      0.095800
      3 C3         -5.4620   -0.1710   -0.6950 c         1 3A2      0.617100
      4 O4         -5.4550   -0.0850    0.5530 o         1 3A2     -0.634100
      5 N5         -4.6520   -1.0780   -1.3430 n         1 3A2     -0.458800
      6 C6         -3.8880   -2.0980   -0.6350 c3        1 3A2      0.030700
      7 C10        -2.4810   -1.5990   -0.2190 c         1 3A2      0.639100
      8 O11        -1.4580   -2.1380   -0.6750 o         1 3A2     -0.573100
      9 C7         -3.7770   -3.3060   -1.5930 c3        1 3A2     -0.087400
     10 C8         -4.2130   -2.8070   -2.9660 c3        1 3A2     -0.090400
     11 C9         -4.7770   -1.3910   -2.7540 c3        1 3A2      0.089000
     12 N12        -2.4430   -0.6330    0.7850 n         1 3A2     -0.504900
     13 C13        -1.1880    0.0150    1.1080 c3        1 3A2     -0.232500
     14 C14        -1.2500    1.5430    1.1510 c3        1 3A2     -0.055100
     15 C15        -1.8490    2.1750   -0.0520 ca        1 3A2     -0.083300
     16 C16        -3.0940    2.8120    0.0230 ca        1 3A2     -0.119000
     17 C17        -3.6200    3.4580   -1.0940 ca        1 3A2     -0.151000
     18 C18        -2.9140    3.4610   -2.2970 ca        1 3A2     -0.147000
     19 C19        -1.6770    2.8220   -2.3770 ca        1 3A2     -0.151000
     20 C20        -1.1370    2.1850   -1.2600 ca        1 3A2     -0.119000
     21 P21        -0.6630   -0.5050    2.6100 p5        1 3A2      1.507100
     22 O22        -1.6980    0.1520    3.6770 oh        1 3A2     -0.805400
     23 O23        -0.7290   -1.9350    2.9310 o         1 3A2     -0.890300
     24 C24         0.7650    0.2390    2.9370 c3        1 3A2     -0.448600
     25 C25         1.6070   -0.5630    3.9010 c3        1 3A2     -0.116400
     26 C26         2.9760   -0.8430    3.2990 c         1 3A2      0.662100
     27 O27         3.8860    0.0110    3.3750 o         1 3A2     -0.625100
     28 N28         3.1840   -2.0200    2.6050 n         1 3A2     -0.468800
     29 C29         4.4290   -2.2780    1.8920 c3        1 3A2      0.028700
     30 C33         4.4470   -1.7010    0.4500 c         1 3A2      0.646100
     31 O34         4.9710   -2.3730   -0.4680 o         1 3A2     -0.657100
     32 C30         4.6100   -3.8110    1.8640 c3        1 3A2     -0.086400
     33 C31         3.2780   -4.4090    2.3020 c3        1 3A2     -0.090400
     34 C32         2.4230   -3.2380    2.8170 c3        1 3A2      0.088000
     35 N35         3.9800   -0.4310    0.2620 n         1 3A2     -0.508900
     36 C36         3.6590    0.1020   -1.0480 c3        1 3A2     -0.022300
     37 C41         2.2360    0.7390   -1.0910 c         1 3A2      0.915600
     38 O43         1.5360    0.8060   -0.0320 o         1 3A2     -0.857800
     39 C37         4.6680    1.1540   -1.5290 c3        1 3A2     -0.075400
     40 C38         5.9770    0.5280   -1.9550 c3        1 3A2     -0.079400
     41 C39         6.9910    1.5840   -2.3440 c3        1 3A2     -0.079400
     42 C40         8.2880    0.9680   -2.8010 c3        1 3A2     -0.088100
     43 O42         1.8190    1.1650   -2.2010 o         1 3A2     -0.857800
     44 HN1        -7.3370    1.6040   -0.0000 hn        1 3A2      0.360300
     45 H43        -6.1490    2.5330   -0.6110 hn        1 3A2      0.360300
     46 H2         -7.2110    0.1310   -1.9190 h1        1 3A2      0.072700
     47 H44        -5.7600    1.1210   -2.4310 h1        1 3A2      0.072700
     48 H6         -4.4330   -2.3900    0.3110 h1        1 3A2      0.089700
     49 H7         -2.7280   -3.6960   -1.6190 hc        1 3A2      0.072200
     50 H7A        -4.4470   -4.1250   -1.2350 hc        1 3A2      0.072200
     51 H8         -3.3430   -2.7690   -3.6670 hc        1 3A2      0.053700
     52 H8A        -4.9900   -3.4740   -3.4110 hc        1 3A2      0.053700
     53 H9         -5.8540   -1.3400   -3.0750 h1        1 3A2      0.045700
     54 H9A        -4.1960   -0.6370   -3.3530 h1        1 3A2      0.045700
     55 HN12       -3.2450   -0.0310    0.8260 hn        1 3A2      0.317500
     56 H13        -0.4170   -0.2310    0.2940 h1        1 3A2      0.184700
     57 H14        -1.8100    1.8530    2.0750 hc        1 3A2      0.076700
     58 H14A       -0.1810    1.8980    1.2340 hc        1 3A2      0.076700
     59 H16        -3.6540    2.8090    0.9700 ha        1 3A2      0.176000
     60 H17        -4.5850    3.9800   -1.0240 ha        1 3A2      0.124500
     61 H18        -3.3290    3.9740   -3.1760 ha        1 3A2      0.113000
     62 H19        -1.1090    2.8240   -3.3190 ha        1 3A2      0.124500
     63 H20        -0.1340    1.6990   -1.3190 ha        1 3A2      0.176000
     64 HO22       -2.2570   -0.4820    4.1170 ho        1 3A2      0.462000
     65 H24         1.3640    0.4380    1.9910 hc        1 3A2      0.148700
     66 H24A        0.6100    1.2660    3.3650 hc        1 3A2      0.148700
     67 H25         1.7980    0.0180    4.8450 hc        1 3A2      0.076200
     68 H25A        1.0790   -1.5160    4.1810 hc        1 3A2      0.076200
     69 H29         5.2870   -1.7830    2.4360 h1        1 3A2      0.081700
     70 H30         4.8970   -4.1570    0.8400 hc        1 3A2      0.063700
     71 H30A        5.4260   -4.1010    2.5710 hc        1 3A2      0.063700
     72 H31         2.7640   -4.9050    1.4420 hc        1 3A2      0.047200
     73 H31A        3.4200   -5.1710    3.1050 hc        1 3A2      0.047200
     74 H32         2.1980   -3.3710    3.9110 h1        1 3A2      0.063200
     75 H32A        1.4420   -3.1840    2.2670 h1        1 3A2      0.063200
     76 HN35        3.5160    0.0370    1.0130 hn        1 3A2      0.327500
     77 H36         3.6590   -0.7500   -1.7920 h1        1 3A2      0.074700
     78 H37         4.1980    1.6860   -2.3990 hc        1 3A2      0.050700
     79 H37A        4.8500    1.9130   -0.7250 hc        1 3A2      0.050700
     80 H38         6.3880   -0.1050   -1.1250 hc        1 3A2      0.044200
     81 H38A        5.7970   -0.1580   -2.8250 hc        1 3A2      0.044200
     82 H39         6.5680    2.2240   -3.1630 hc        1 3A2      0.031700
     83 H39A        7.1830    2.2570   -1.4670 hc        1 3A2      0.031700
     84 H40         9.0230    1.7610   -3.0770 hc        1 3A2      0.023700
     85 H40A        8.7310    0.3410   -1.9900 hc        1 3A2      0.023700
     86 H40B        8.1200    0.3160   -3.6920 hc        1 3A2      0.023700
@<TRIPOS>BOND
     1    1    2 1   
     2    1   44 1   
     3    1   45 1   
     4    2    3 1   
     5    2   46 1   
     6    2   47 1   
     7    3    4 2   
     8    3    5 1   
     9    5    6 1   
    10    5   11 1   
    11    6    7 1   
    12    6    9 1   
    13    6   48 1   
    14    7    8 2   
    15    7   12 1   
    16    9   10 1   
    17    9   49 1   
    18    9   50 1   
    19   10   11 1   
    20   10   51 1   
    21   10   52 1   
    22   11   53 1   
    23   11   54 1   
    24   12   13 1   
    25   12   55 1   
    26   13   14 1   
    27   13   21 1   
    28   13   56 1   
    29   14   15 1   
    30   14   57 1   
    31   14   58 1   
    32   15   16 ar  
    33   15   20 ar  
    34   16   17 ar  
    35   16   59 1   
    36   17   18 ar  
    37   17   60 1   
    38   18   19 ar  
    39   18   61 1   
    40   19   20 ar  
    41   19   62 1   
    42   20   63 1   
    43   21   22 1   
    44   21   23 2   
    45   21   24 1   
    46   22   64 1   
    47   24   25 1   
    48   24   65 1   
    49   24   66 1   
    50   25   26 1   
    51   25   67 1   
    52   25   68 1   
    53   26   27 2   
    54   26   28 1   
    55   28   29 1   
    56   28   34 1   
    57   29   30 1   
    58   29   32 1   
    59   29   69 1   
    60   30   31 2   
    61   30   35 1   
    62   32   33 1   
    63   32   70 1   
    64   32   71 1   
    65   33   34 1   
    66   33   72 1   
    67   33   73 1   
    68   34   74 1   
    69   34   75 1   
    70   35   36 1   
    71   35   76 1   
    72   36   37 1   
    73   36   39 1   
    74   36   77 1   
    75   37   38 1   
    76   37   43 1   
    77   39   40 1   
    78   39   78 1   
    79   39   79 1   
    80   40   41 1   
    81   40   80 1   
    82   40   81 1   
    83   41   42 1   
    84   41   82 1   
    85   41   83 1   
    86   42   84 1   
    87   42   85 1   
    88   42   86 1   
@<TRIPOS>SUBSTRUCTURE
     1 3A2         1 TEMP              0 ****  ****    0 ROOT
