@<TRIPOS>MOLECULE
3A3
   36    32     1     0     0
SMALL
bcc


@<TRIPOS>ATOM
      1 O24        -1.2510   -0.4600    7.7030 o         1 3A3     -0.563000
      2 C11        -1.7760   -0.9240    6.6810 c2        1 3A3      0.344000
      3 O14        -2.9870   -1.2410    6.6900 o         1 3A3     -0.563000
      4 C19        -0.9430   -1.1880    5.4680 c3        1 3A3     -0.106000
      5 O17        -1.7680   -1.1290    4.2890 os        1 3A3     -0.178000
      6 C15        -1.0420   -0.8840    3.1100 c2        1 3A3      0.101000
      7 C10        -0.3930    0.1830    2.5080 c2        1 3A3     -0.164000
      8 C22        -1.6600   -1.8880    2.3150 c1        1 3A3     -0.181000
      9 C8         -1.6150   -1.8000    0.9260 c1        1 3A3     -0.090000
     10 C4         -0.9540   -0.7150    0.3160 c1        1 3A3     -0.073000
     11 C3         -0.3430    0.2780    1.1140 c1        1 3A3     -0.024000
     12 C1          0.2900    1.2440    0.2240 c2        1 3A3      0.021000
     13 N6          0.8620    2.4140    0.5970 n1        1 3A3     -0.060000
     14 O23         2.0020    2.8140    0.0210 o         1 3A3     -0.244000
     15 C2          0.0690    0.7900   -1.1580 c2        1 3A3     -0.062000
     16 C9          0.5290    1.2560   -2.3730 c2        1 3A3     -0.116000
     17 C5         -0.6930   -0.3890   -1.1060 c1        1 3A3     -0.071000
     18 C7         -0.9840   -1.0850   -2.2670 c1        1 3A3     -0.153500
     19 C21        -0.5250   -0.6230   -3.4880 c1        1 3A3     -0.153500
     20 C16         0.2340    0.5490   -3.5530 c1        1 3A3      0.099000
     21 O18         1.0420    1.4980   -4.2580 os        1 3A3     -0.175000
     22 C20         1.7890    0.9240   -5.3860 c3        1 3A3     -0.105000
     23 C12         3.2800    0.9780   -5.0980 c2        1 3A3      0.344000
     24 O25         4.1120    0.3470   -5.8760 o         1 3A3     -0.562000
     25 O13         3.7170    1.7130   -4.1770 o         1 3A3     -0.562000
     26 H191       -0.2580   -0.5300    5.4060 h1        1 3A3      0.061000
     27 H192       -0.5150   -2.1250    5.5410 h1        1 3A3      0.061000
     28 H10        -0.0530    0.9260    3.0640 ha        1 3A3      0.154000
     29 H22        -2.2340   -2.5880    2.7550 ha        1 3A3      0.140000
     30 H8         -2.0900   -2.4710    0.3680 ha        1 3A3      0.121000
     31 H23         2.2240    3.6020    0.3270 ho        1 3A3      0.224000
     32 H9          1.0600    2.0750   -2.4130 ha        1 3A3      0.161000
     33 H7         -1.5090   -1.8990   -2.2220 ha        1 3A3      0.127500
     34 H21        -0.7370   -1.1230   -4.3160 ha        1 3A3      0.127500
     35 H201        1.5290    0.0190   -5.5130 h1        1 3A3      0.059000
     36 H202        1.5890    1.4500   -6.2190 h1        1 3A3      0.059000
@<TRIPOS>BOND
     1    1    2 1   
     2    2    3 1   
     3    2    4 1   
     4    4    5 1   
     5    4   26 1   
     6    4   27 1   
     7    5    6 1   
     8    6    7 1   
     9    6    8 1   
    10    7   11 1   
    11    7   28 1   
    12    8   29 1   
    13    9   10 1   
    14    9   30 1   
    15   11   12 1   
    16   12   13 1   
    17   12   15 1   
    18   14   31 1   
    19   15   16 1   
    20   15   17 1   
    21   16   20 1   
    22   16   32 1   
    23   18   19 1   
    24   18   33 1   
    25   19   34 1   
    26   20   21 1   
    27   21   22 1   
    28   22   23 1   
    29   22   35 1   
    30   22   36 1   
    31   23   24 1   
    32   23   25 1   
@<TRIPOS>SUBSTRUCTURE
     1 3A3         1 TEMP              0 ****  ****    0 ROOT
