@<TRIPOS>MOLECULE
3A3
   36    38     1     0     0
SMALL
bcc


@<TRIPOS>ATOM
      1 O24        -7.7360    0.0590    1.1430 o         1 3A3     -0.827300
      2 C11        -7.2000   -0.0660    0.0100 c         1 3A3      0.924600
      3 O14        -7.7360    0.2390   -1.0890 o         1 3A3     -0.827300
      4 C19        -5.7990   -0.7400   -0.0440 c3        1 3A3     -0.005100
      5 O17        -4.8140    0.2960    0.0390 os        1 3A3     -0.291900
      6 C15        -3.5050   -0.1120    0.0060 ca        1 3A3      0.144600
      7 C10        -2.5560    0.9470    0.0910 ca        1 3A3     -0.118000
      8 C22        -3.0830   -1.4410   -0.1010 ca        1 3A3     -0.221500
      9 C8         -1.7160   -1.7550   -0.1260 ca        1 3A3     -0.085000
     10 C4         -0.7840   -0.7400   -0.0440 cp        1 3A3     -0.072000
     11 C3         -1.2200    0.6230    0.0650 ca        1 3A3     -0.129900
     12 C1         -0.0180    1.5020    0.1360 cc        1 3A3      0.478500
     13 N6         -0.1000    2.8010    0.2410 n2        1 3A3     -0.448200
     14 O23         1.0310    3.4710    0.2950 oh        1 3A3     -0.347500
     15 C2          1.1510    0.5860    0.0620 ca        1 3A3     -0.129900
     16 C9          2.4970    0.8700    0.0850 ca        1 3A3     -0.118000
     17 C5          0.6760   -0.7640   -0.0460 cp        1 3A3     -0.072000
     18 C7          1.5760   -1.8060   -0.1300 ca        1 3A3     -0.085000
     19 C21         2.9520   -1.5320   -0.1080 ca        1 3A3     -0.221500
     20 C16         3.4130   -0.2160   -0.0020 ca        1 3A3      0.144600
     21 O18         4.7340    0.1510    0.0270 os        1 3A3     -0.291900
     22 C20         5.6870   -0.9140   -0.0580 c3        1 3A3     -0.005100
     23 C12         7.1080   -0.2830   -0.0080 c         1 3A3      0.924600
     24 O25         7.6510   -0.1750    1.1240 o         1 3A3     -0.827300
     25 O13         7.6510    0.0060   -1.1070 o         1 3A3     -0.827300
     26 H191       -5.6760   -1.2910   -1.0110 h1        1 3A3      0.019700
     27 H192       -5.6760   -1.4390    0.8220 h1        1 3A3      0.019700
     28 H10        -2.9130    1.9820    0.1750 ha        1 3A3      0.159000
     29 H22        -3.8200   -2.2540   -0.1660 ha        1 3A3      0.137000
     30 H8         -1.3980   -2.8030   -0.2100 ha        1 3A3      0.119500
     31 H23         0.7510    4.4050    0.3700 ho        1 3A3      0.424000
     32 H9          2.8800    1.8970    0.1680 ha        1 3A3      0.159000
     33 H7          1.2270   -2.8440   -0.2140 ha        1 3A3      0.119500
     34 H21         3.6640   -2.3670   -0.1750 ha        1 3A3      0.137000
     35 H201        5.5450   -1.6080    0.8080 h1        1 3A3      0.019700
     36 H202        5.5450   -1.4600   -1.0250 h1        1 3A3      0.019700
@<TRIPOS>BOND
     1    1    2 1   
     2    2    3 1   
     3    2    4 1   
     4    4    5 1   
     5    4   26 1   
     6    4   27 1   
     7    5    6 1   
     8    6    7 ar  
     9    6    8 ar  
    10    7   11 ar  
    11    7   28 1   
    12    8    9 ar  
    13    8   29 1   
    14    9   10 ar  
    15    9   30 1   
    16   10   11 ar  
    17   10   17 1   
    18   11   12 1   
    19   12   13 2   
    20   12   15 1   
    21   13   14 1   
    22   14   31 1   
    23   15   16 ar  
    24   15   17 ar  
    25   16   20 ar  
    26   16   32 1   
    27   17   18 ar  
    28   18   19 ar  
    29   18   33 1   
    30   19   20 ar  
    31   19   34 1   
    32   20   21 1   
    33   21   22 1   
    34   22   23 1   
    35   22   35 1   
    36   22   36 1   
    37   23   24 1   
    38   23   25 1   
@<TRIPOS>SUBSTRUCTURE
     1 3A3         1 TEMP              0 ****  ****    0 ROOT
