@<TRIPOS>MOLECULE
3A3
   36    38     1     0     0
SMALL
bcc


@<TRIPOS>ATOM
      1 O24         1.4150    1.1480    0.9760 o         1 3A3     -0.827300
      2 C11         1.6910    0.0130    0.5040 c         1 3A3      0.924600
      3 O14         1.6210   -1.0750    1.1340 o         1 3A3     -0.827300
      4 C19         2.0560   -0.0600   -1.0060 c3        1 3A3     -0.005100
      5 O17         3.4790    0.0530   -1.1170 os        1 3A3     -0.291900
      6 C15         3.9920    0.0090   -2.3880 ca        1 3A3      0.144600
      7 C10         5.4100    0.1240   -2.4550 ca        1 3A3     -0.118000
      8 C22         3.2320   -0.1370   -3.5520 ca        1 3A3     -0.221500
      9 C8          3.8540   -0.1720   -4.8090 ca        1 3A3     -0.085000
     10 C4          5.2270   -0.0610   -4.8910 cp        1 3A3     -0.072000
     11 C3          6.0040    0.0880   -3.6940 ca        1 3A3     -0.129900
     12 C1          7.4440    0.1840   -4.0710 cc        1 3A3      0.478500
     13 N6          8.3960    0.3260   -3.1890 n2        1 3A3     -0.448200
     14 O23         9.6290    0.3990   -3.6420 oh        1 3A3     -0.347500
     15 C2          7.4760    0.0840   -5.5540 ca        1 3A3     -0.129900
     16 C9          8.5450    0.1140   -6.4180 ca        1 3A3     -0.118000
     17 C5          6.1320   -0.0640   -6.0370 cp        1 3A3     -0.072000
     18 C7          5.8960   -0.1780   -7.3920 ca        1 3A3     -0.085000
     19 C21         6.9770   -0.1480   -8.2860 ca        1 3A3     -0.221500
     20 C16         8.2860   -0.0040   -7.8130 ca        1 3A3      0.144600
     21 O18         9.4050    0.0360   -8.6040 os        1 3A3     -0.291900
     22 C20         9.1850   -0.0810  -10.0140 c3        1 3A3     -0.005100
     23 C12        10.5710   -0.0120  -10.7170 c         1 3A3      0.924600
     24 O25        10.9710    1.1210  -11.0930 o         1 3A3     -0.827300
     25 O13        11.1630   -1.1030  -10.9320 o         1 3A3     -0.827300
     26 H191        1.5730    0.7850   -1.5590 h1        1 3A3      0.019700
     27 H192        1.7290   -1.0430   -1.4320 h1        1 3A3      0.019700
     28 H10         5.9840    0.2370   -1.5250 ha        1 3A3      0.159000
     29 H22         2.1380   -0.2250   -3.4940 ha        1 3A3      0.137000
     30 H8          3.2450   -0.2860   -5.7170 ha        1 3A3      0.119500
     31 H23        10.1730    0.5010   -2.8370 ho        1 3A3      0.424000
     32 H9          9.5810    0.2270   -6.0670 ha        1 3A3      0.159000
     33 H7          4.8730   -0.2910   -7.7760 ha        1 3A3      0.119500
     34 H21         6.7830   -0.2390   -9.3630 ha        1 3A3      0.137000
     35 H201        8.5380    0.7650  -10.3590 h1        1 3A3      0.019700
     36 H202        8.6930   -1.0630  -10.2320 h1        1 3A3      0.019700
@<TRIPOS>BOND
     1    1    2 1   
     2    2    3 1   
     3    2    4 1   
     4    4    5 1   
     5    4   26 1   
     6    4   27 1   
     7    5    6 1   
     8    6    7 ar  
     9    6    8 ar  
    10    7   11 ar  
    11    7   28 1   
    12    8    9 ar  
    13    8   29 1   
    14    9   10 ar  
    15    9   30 1   
    16   10   11 ar  
    17   10   17 1   
    18   11   12 1   
    19   12   13 2   
    20   12   15 1   
    21   13   14 1   
    22   14   31 1   
    23   15   16 ar  
    24   15   17 ar  
    25   16   20 ar  
    26   16   32 1   
    27   17   18 ar  
    28   18   19 ar  
    29   18   33 1   
    30   19   20 ar  
    31   19   34 1   
    32   20   21 1   
    33   21   22 1   
    34   22   23 1   
    35   22   35 1   
    36   22   36 1   
    37   23   24 1   
    38   23   25 1   
@<TRIPOS>SUBSTRUCTURE
     1 3A3         1 TEMP              0 ****  ****    0 ROOT
