@<TRIPOS>MOLECULE
3A3
   36    38     1     0     0
SMALL
bcc


@<TRIPOS>ATOM
      1 O24         1.4560   -1.1440    1.0040 o         1 3A3     -0.827300
      2 C11         1.6950   -0.0110    0.5070 c         1 3A3      0.924600
      3 O14         1.5900    1.0880    1.1130 o         1 3A3     -0.827300
      4 C19         2.0570    0.0410   -1.0050 c3        1 3A3     -0.005100
      5 O17         3.4830   -0.0390   -1.1140 os        1 3A3     -0.291900
      6 C15         3.9940   -0.0070   -2.3860 ca        1 3A3      0.144600
      7 C10         5.4140   -0.0890   -2.4520 ca        1 3A3     -0.118000
      8 C22         3.2300    0.0960   -3.5530 ca        1 3A3     -0.221500
      9 C8          3.8500    0.1200   -4.8100 ca        1 3A3     -0.085000
     10 C4          5.2260    0.0420   -4.8920 cp        1 3A3     -0.072000
     11 C3          6.0070   -0.0640   -3.6920 ca        1 3A3     -0.129900
     12 C1          7.4490   -0.1320   -4.0690 cc        1 3A3      0.478500
     13 N6          8.4040   -0.2330   -3.1840 n2        1 3A3     -0.448200
     14 O23         9.6380   -0.2840   -3.6370 oh        1 3A3     -0.347500
     15 C2          7.4770   -0.0610   -5.5540 ca        1 3A3     -0.129900
     16 C9          8.5470   -0.0820   -6.4170 ca        1 3A3     -0.118000
     17 C5          6.1300    0.0440   -6.0380 cp        1 3A3     -0.072000
     18 C7          5.8910    0.1250   -7.3950 ca        1 3A3     -0.085000
     19 C21         6.9720    0.1040   -8.2890 ca        1 3A3     -0.221500
     20 C16         8.2840    0.0020   -7.8140 ca        1 3A3      0.144600
     21 O18         9.4030   -0.0260   -8.6050 os        1 3A3     -0.291900
     22 C20         9.1800    0.0560  -10.0180 c3        1 3A3     -0.005100
     23 C12        10.5670    0.0080  -10.7200 c         1 3A3      0.924600
     24 O25        10.9970   -1.1230  -11.0700 o         1 3A3     -0.827300
     25 O13        11.1300    1.1080  -10.9610 o         1 3A3     -0.827300
     26 H191        1.7060    1.0060   -1.4500 h1        1 3A3      0.019700
     27 H192        1.5960   -0.8280   -1.5400 h1        1 3A3      0.019700
     28 H10         5.9920   -0.1700   -1.5210 ha        1 3A3      0.159000
     29 H22         2.1350    0.1590   -3.4950 ha        1 3A3      0.137000
     30 H8          3.2390    0.2020   -5.7200 ha        1 3A3      0.119500
     31 H23        10.1850   -0.3570   -2.8310 ho        1 3A3      0.424000
     32 H9          9.5850   -0.1620   -6.0650 ha        1 3A3      0.159000
     33 H7          4.8650    0.2050   -7.7800 ha        1 3A3      0.119500
     34 H21         6.7750    0.1690   -9.3670 ha        1 3A3      0.137000
     35 H201        8.6640    1.0210  -10.2550 h1        1 3A3      0.019700
     36 H202        8.5540   -0.8120  -10.3450 h1        1 3A3      0.019700
@<TRIPOS>BOND
     1    1    2 1   
     2    2    3 1   
     3    2    4 1   
     4    4    5 1   
     5    4   26 1   
     6    4   27 1   
     7    5    6 1   
     8    6    7 ar  
     9    6    8 ar  
    10    7   11 ar  
    11    7   28 1   
    12    8    9 ar  
    13    8   29 1   
    14    9   10 ar  
    15    9   30 1   
    16   10   11 ar  
    17   10   17 1   
    18   11   12 1   
    19   12   13 2   
    20   12   15 1   
    21   13   14 1   
    22   14   31 1   
    23   15   16 ar  
    24   15   17 ar  
    25   16   20 ar  
    26   16   32 1   
    27   17   18 ar  
    28   18   19 ar  
    29   18   33 1   
    30   19   20 ar  
    31   19   34 1   
    32   20   21 1   
    33   21   22 1   
    34   22   23 1   
    35   22   35 1   
    36   22   36 1   
    37   23   24 1   
    38   23   25 1   
@<TRIPOS>SUBSTRUCTURE
     1 3A3         1 TEMP              0 ****  ****    0 ROOT
