@<TRIPOS>MOLECULE
3A4
   70    74     1     0     0
SMALL
bcc


@<TRIPOS>ATOM
      1 O1          0.3680   -0.7720   -0.1490 o         1 3A4     -0.475100
      2 C24         1.5330   -0.4210    0.0010 c         1 3A4      0.562900
      3 C23         2.1230   -0.1490    1.3880 c3        1 3A4     -0.007500
      4 C25         3.1860   -1.2240    1.6680 c3        1 3A4     -0.012100
      5 C26         3.7280   -1.1070    3.0330 cc        1 3A4     -0.304900
      6 N3          4.1820   -2.1850    3.8050 na        1 3A4     -0.298900
      7 C28         4.6510   -1.6510    5.0070 cc        1 3A4      0.434400
      8 N2          4.5020   -0.3050    5.0430 nd        1 3A4     -0.641000
      9 C27         3.9420    0.0480    3.8250 cd        1 3A4      0.297200
     10 N1          1.0770   -0.0950    2.4620 ny        1 3A4     -0.761000
     11 C22         0.3830    1.2300    2.4890 c3        1 3A4      0.102800
     12 C21        -0.7520    1.2650    3.5420 c3        1 3A4      0.081700
     13 C20        -1.9880    0.5330    2.9880 c3        1 3A4     -0.112400
     14 C19        -3.0730    0.4910    4.0510 c3        1 3A4     -0.061700
     15 C18        -4.3340   -0.1820    3.5340 c3        1 3A4     -0.073400
     16 C17        -5.3970   -0.2170    4.6150 c3        1 3A4     -0.078400
     17 C16        -5.6900    1.1650    5.1610 c3        1 3A4     -0.079400
     18 C15        -4.4300    1.8590    5.6410 c3        1 3A4     -0.071400
     19 C14        -3.3950    1.9070    4.5290 c3        1 3A4     -0.090700
     20 C13        -2.1160    2.6040    5.0130 c3        1 3A4      0.068000
     21 N          -1.0440    2.6130    4.0260 n         1 3A4     -0.439800
     22 C          -0.9240    3.7180    3.1560 c         1 3A4      0.675700
     23 O          -0.4830    3.5560    1.9980 o         1 3A4     -0.622100
     24 C1         -1.2330    5.0760    3.6690 ca        1 3A4     -0.162600
     25 C12        -0.7700    5.5160    4.9150 ca        1 3A4     -0.085000
     26 C11        -1.0300    6.8170    5.3320 ca        1 3A4     -0.129500
     27 C4         -1.7570    7.6980    4.5150 cp        1 3A4      0.016000
     28 C3         -2.2120    7.2500    3.2660 ca        1 3A4     -0.129500
     29 C2         -1.9460    5.9520    2.8400 ca        1 3A4     -0.085000
     30 C5         -2.0320    9.0620    4.9590 cp        1 3A4     -0.068000
     31 C10        -1.9600   10.1300    4.0530 ca        1 3A4     -0.110000
     32 C9         -2.2210   11.4310    4.4790 ca        1 3A4     -0.127500
     33 C8         -2.5600   11.6790    5.8090 ca        1 3A4     -0.110000
     34 C7         -2.6350   10.6210    6.7150 ca        1 3A4     -0.127500
     35 C6         -2.3700    9.3190    6.2960 ca        1 3A4     -0.110000
     36 H1          2.2600   -0.2780   -0.8260 h4        1 3A4      0.070200
     37 H2          2.6290    0.8660    1.3640 hx        1 3A4      0.134700
     38 H3          4.0140   -1.0750    0.9170 hc        1 3A4      0.091200
     39 H4          2.7510   -2.2450    1.4880 hc        1 3A4      0.091200
     40 H5          4.2390   -3.1250    3.5080 hn        1 3A4      0.317700
     41 H6          5.0780   -2.2690    5.8080 h5        1 3A4      0.089100
     42 H8          3.7570    1.0930    3.5710 h4        1 3A4      0.045100
     43 H9          0.3830   -0.8330    2.2850 hn        1 3A4      0.459300
     44 H11        -0.0450    1.4200    1.4600 hx        1 3A4      0.128200
     45 H12         1.1610    2.0170    2.7130 hx        1 3A4      0.128200
     46 H13        -0.4040    0.7040    4.4670 h1        1 3A4      0.060700
     47 H14        -2.3670    1.0560    2.0710 hc        1 3A4      0.055700
     48 H15        -1.7120   -0.5120    2.6960 hc        1 3A4      0.055700
     49 H16        -2.6900   -0.1010    4.9310 hc        1 3A4      0.050700
     50 H17        -4.7200    0.3770    2.6420 hc        1 3A4      0.046700
     51 H18        -4.0960   -1.2260    3.2040 hc        1 3A4      0.046700
     52 H19        -6.3380   -0.6590    4.1940 hc        1 3A4      0.050200
     53 H20        -5.0570   -0.8850    5.4500 hc        1 3A4      0.050200
     54 H21        -6.4150    1.0840    6.0130 hc        1 3A4      0.052200
     55 H22        -6.1770    1.7860    4.3630 hc        1 3A4      0.052200
     56 H23        -4.6760    2.9030    5.9680 hc        1 3A4      0.049700
     57 H24        -4.0110    1.3150    6.5270 hc        1 3A4      0.049700
     58 H25        -3.8250    2.4890    3.6660 hc        1 3A4      0.066700
     59 H26        -2.3630    3.6630    5.3070 h1        1 3A4      0.075200
     60 H27        -1.7250    2.0710    5.9270 h1        1 3A4      0.075200
     61 H28        -0.1890    4.8410    5.5620 ha        1 3A4      0.145000
     62 H29        -0.6530    7.1650    6.3070 ha        1 3A4      0.151500
     63 H30        -2.7840    7.9310    2.6160 ha        1 3A4      0.151500
     64 H31        -2.2850    5.6110    1.8490 ha        1 3A4      0.145000
     65 H32        -1.6870    9.9410    3.0030 ha        1 3A4      0.134500
     66 H33        -2.1580   12.2640    3.7620 ha        1 3A4      0.140500
     67 H34        -2.7670   12.7070    6.1430 ha        1 3A4      0.142000
     68 H35        -2.9050   10.8130    7.7650 ha        1 3A4      0.140500
     69 H36        -2.4360    8.4880    7.0140 ha        1 3A4      0.134500
     70 H121        1.5270   -0.2710    3.3730 hn        1 3A4      0.459300
@<TRIPOS>BOND
     1    1    2 2   
     2    2    3 1   
     3    2   36 1   
     4    3    4 1   
     5    3   10 1   
     6    3   37 1   
     7    4    5 1   
     8    4   38 1   
     9    4   39 1   
    10    5    6 1   
    11    5    9 2   
    12    6    7 1   
    13    6   40 1   
    14    7    8 2   
    15    7   41 1   
    16    8    9 1   
    17    9   42 1   
    18   10   11 1   
    19   10   43 1   
    20   10   70 1   
    21   11   12 1   
    22   11   44 1   
    23   11   45 1   
    24   12   13 1   
    25   12   21 1   
    26   12   46 1   
    27   13   14 1   
    28   13   47 1   
    29   13   48 1   
    30   14   15 1   
    31   14   19 1   
    32   14   49 1   
    33   15   16 1   
    34   15   50 1   
    35   15   51 1   
    36   16   17 1   
    37   16   52 1   
    38   16   53 1   
    39   17   18 1   
    40   17   54 1   
    41   17   55 1   
    42   18   19 1   
    43   18   56 1   
    44   18   57 1   
    45   19   20 1   
    46   19   58 1   
    47   20   21 1   
    48   20   59 1   
    49   20   60 1   
    50   21   22 1   
    51   22   23 2   
    52   22   24 1   
    53   24   25 ar  
    54   24   29 ar  
    55   25   26 ar  
    56   25   61 1   
    57   26   27 ar  
    58   26   62 1   
    59   27   28 ar  
    60   27   30 1   
    61   28   29 ar  
    62   28   63 1   
    63   29   64 1   
    64   30   31 ar  
    65   30   35 ar  
    66   31   32 ar  
    67   31   65 1   
    68   32   33 ar  
    69   32   66 1   
    70   33   34 ar  
    71   33   67 1   
    72   34   35 ar  
    73   34   68 1   
    74   35   69 1   
@<TRIPOS>SUBSTRUCTURE
     1 3A4         1 TEMP              0 ****  ****    0 ROOT
