@<TRIPOS>MOLECULE
3A4
   70    74     1     0     0
SMALL
bcc


@<TRIPOS>ATOM
      1 O1          0.3640   -0.7720   -0.1450 o         1 3A4     -0.475100
      2 C24         1.5280   -0.4190    0.0030 c         1 3A4      0.562900
      3 C23         2.1200   -0.1440    1.3880 c3        1 3A4     -0.007500
      4 C25         3.1860   -1.2170    1.6680 c3        1 3A4     -0.012100
      5 C26         3.7290   -1.0970    3.0320 cc        1 3A4     -0.304900
      6 N3          4.1870   -2.1730    3.8060 na        1 3A4     -0.298900
      7 C28         4.6560   -1.6370    5.0060 cc        1 3A4      0.434400
      8 N2          4.5060   -0.2910    5.0400 nd        1 3A4     -0.641000
      9 C27         3.9430    0.0590    3.8220 cd        1 3A4      0.297200
     10 N1          1.0760   -0.0890    2.4650 n4        1 3A4     -0.761000
     11 C22         0.3810    1.2350    2.4910 c3        1 3A4      0.102800
     12 C21        -0.7540    1.2680    3.5450 c3        1 3A4      0.081700
     13 C20        -1.9890    0.5350    2.9930 c3        1 3A4     -0.112400
     14 C19        -3.0740    0.4930    4.0570 c3        1 3A4     -0.061700
     15 C18        -4.3350   -0.1810    3.5410 c3        1 3A4     -0.073400
     16 C17        -5.3960   -0.2180    4.6230 c3        1 3A4     -0.078400
     17 C16        -5.6900    1.1650    5.1690 c3        1 3A4     -0.079400
     18 C15        -4.4310    1.8610    5.6470 c3        1 3A4     -0.071400
     19 C14        -3.3960    1.9090    4.5350 c3        1 3A4     -0.090700
     20 C13        -2.1180    2.6070    5.0170 c3        1 3A4      0.068000
     21 N          -1.0460    2.6160    4.0290 n         1 3A4     -0.439800
     22 C          -0.9290    3.7210    3.1580 c         1 3A4      0.675700
     23 O          -0.4890    3.5590    2.0000 o         1 3A4     -0.622100
     24 C1         -1.2380    5.0800    3.6710 ca        1 3A4     -0.162600
     25 C12        -0.7740    5.5190    4.9160 ca        1 3A4     -0.085000
     26 C11        -1.0340    6.8210    5.3340 ca        1 3A4     -0.129500
     27 C4         -1.7630    7.7010    4.5170 cp        1 3A4      0.016000
     28 C3         -2.2180    7.2530    3.2680 ca        1 3A4     -0.129500
     29 C2         -1.9520    5.9540    2.8430 ca        1 3A4     -0.085000
     30 C5         -2.0390    9.0650    4.9610 cp        1 3A4     -0.068000
     31 C10        -1.9690   10.1330    4.0540 ca        1 3A4     -0.110000
     32 C9         -2.2300   11.4340    4.4800 ca        1 3A4     -0.127500
     33 C8         -2.5680   11.6810    5.8110 ca        1 3A4     -0.110000
     34 C7         -2.6410   10.6240    6.7180 ca        1 3A4     -0.127500
     35 C6         -2.3760    9.3220    6.2980 ca        1 3A4     -0.110000
     36 H1          2.2540   -0.2760   -0.8250 h4        1 3A4      0.070200
     37 H2          2.6250    0.8720    1.3630 hx        1 3A4      0.134700
     38 H3          4.0120   -1.0680    0.9160 hc        1 3A4      0.091200
     39 H4          2.7510   -2.2390    1.4910 hc        1 3A4      0.091200
     40 H5          4.2450   -3.1140    3.5100 hn        1 3A4      0.317700
     41 H6          5.0860   -2.2530    5.8070 h5        1 3A4      0.089100
     42 H8          3.7560    1.1030    3.5670 h4        1 3A4      0.045100
     43 H9          1.5280   -0.2650    3.3750 hn        1 3A4      0.459300
     44 H11         1.1570    2.0220    2.7140 hx        1 3A4      0.128200
     45 H12        -0.0490    1.4240    1.4620 hx        1 3A4      0.128200
     46 H13        -0.4050    0.7090    4.4700 h1        1 3A4      0.060700
     47 H14        -1.7130   -0.5100    2.7010 hc        1 3A4      0.055700
     48 H15        -2.3690    1.0570    2.0760 hc        1 3A4      0.055700
     49 H16        -2.6890   -0.0980    4.9360 hc        1 3A4      0.050700
     50 H17        -4.7220    0.3760    2.6480 hc        1 3A4      0.046700
     51 H18        -4.0950   -1.2250    3.2120 hc        1 3A4      0.046700
     52 H19        -5.0550   -0.8840    5.4580 hc        1 3A4      0.050200
     53 H20        -6.3370   -0.6600    4.2030 hc        1 3A4      0.050200
     54 H21        -6.4140    1.0830    6.0210 hc        1 3A4      0.052200
     55 H22        -6.1780    1.7850    4.3710 hc        1 3A4      0.052200
     56 H23        -4.6770    2.9040    5.9740 hc        1 3A4      0.049700
     57 H24        -4.0100    1.3170    6.5330 hc        1 3A4      0.049700
     58 H25        -3.8280    2.4900    3.6710 hc        1 3A4      0.066700
     59 H26        -2.3660    3.6660    5.3110 h1        1 3A4      0.075200
     60 H27        -1.7250    2.0750    5.9310 h1        1 3A4      0.075200
     61 H28        -0.1920    4.8460    5.5630 ha        1 3A4      0.145500
     62 H29        -0.6560    7.1690    6.3080 ha        1 3A4      0.151500
     63 H30        -2.7920    7.9330    2.6190 ha        1 3A4      0.151500
     64 H31        -2.2920    5.6130    1.8530 ha        1 3A4      0.145500
     65 H32        -1.6970    9.9440    3.0050 ha        1 3A4      0.134500
     66 H33        -2.1690   12.2670    3.7640 ha        1 3A4      0.140500
     67 H34        -2.7760   12.7090    6.1450 ha        1 3A4      0.142000
     68 H35        -2.9090   10.8160    7.7670 ha        1 3A4      0.140500
     69 H36        -2.4400    8.4910    7.0160 ha        1 3A4      0.134500
     70 H121        0.3830   -0.8290    2.2890 hn        1 3A4      0.459300
@<TRIPOS>BOND
     1    1    2 2   
     2    2    3 1   
     3    2   36 1   
     4    3    4 1   
     5    3   10 1   
     6    3   37 1   
     7    4    5 1   
     8    4   38 1   
     9    4   39 1   
    10    5    6 1   
    11    5    9 2   
    12    6    7 1   
    13    6   40 1   
    14    7    8 2   
    15    7   41 1   
    16    8    9 1   
    17    9   42 1   
    18   10   11 1   
    19   10   43 1   
    20   10   70 1   
    21   11   12 1   
    22   11   44 1   
    23   11   45 1   
    24   12   13 1   
    25   12   21 1   
    26   12   46 1   
    27   13   14 1   
    28   13   47 1   
    29   13   48 1   
    30   14   15 1   
    31   14   19 1   
    32   14   49 1   
    33   15   16 1   
    34   15   50 1   
    35   15   51 1   
    36   16   17 1   
    37   16   52 1   
    38   16   53 1   
    39   17   18 1   
    40   17   54 1   
    41   17   55 1   
    42   18   19 1   
    43   18   56 1   
    44   18   57 1   
    45   19   20 1   
    46   19   58 1   
    47   20   21 1   
    48   20   59 1   
    49   20   60 1   
    50   21   22 1   
    51   22   23 2   
    52   22   24 1   
    53   24   25 ar  
    54   24   29 ar  
    55   25   26 ar  
    56   25   61 1   
    57   26   27 ar  
    58   26   62 1   
    59   27   28 ar  
    60   27   30 1   
    61   28   29 ar  
    62   28   63 1   
    63   29   64 1   
    64   30   31 ar  
    65   30   35 ar  
    66   31   32 ar  
    67   31   65 1   
    68   32   33 ar  
    69   32   66 1   
    70   33   34 ar  
    71   33   67 1   
    72   34   35 ar  
    73   34   68 1   
    74   35   69 1   
@<TRIPOS>SUBSTRUCTURE
     1 3A4         1 TEMP              0 ****  ****    0 ROOT
