@<TRIPOS>MOLECULE
3A5
   24    23     1     0     0
SMALL
bcc


@<TRIPOS>ATOM
      1 CA          1.3920   -0.9400    0.4020 ce        1 3A5      0.396300
      2 CB          1.9150    0.1700    1.2640 c3        1 3A5     -0.197400
      3 C           2.4710   -2.0240    0.1760 c         1 3A5      0.835300
      4 O           2.5540   -2.9490    1.0300 o         1 3A5     -0.839300
      5 O1         -0.9700    2.3690    1.6570 o         1 3A5     -0.860300
      6 O2         -1.5920    3.4880   -0.1640 o         1 3A5     -0.860300
      7 C2         -0.5980    1.3240   -0.4970 c3        1 3A5     -0.201400
      8 C3         -0.8120   -0.0600    0.1320 c3        1 3A5      0.088500
      9 N           0.2180   -1.0580   -0.1140 n2        1 3A5     -0.627900
     10 C4         -2.1240   -0.6300   -0.3970 c         1 3A5      0.676100
     11 O4         -2.6120   -0.6520   -1.5280 o         1 3A5     -0.582000
     12 O45        -2.8770   -1.2060    0.6050 os        1 3A5     -0.442900
     13 C5         -4.1270   -1.7610    0.2300 c3        1 3A5      0.134700
     14 OXT         3.2500   -1.8840   -0.8060 o         1 3A5     -0.839300
     15 HB1         2.7080    0.7170    0.6970 hc        1 3A5      0.048700
     16 HB2         1.1210    0.9000    1.5690 hc        1 3A5      0.048700
     17 HB3         2.3750   -0.2740    2.1800 hc        1 3A5      0.048700
     18 H21C       -1.1050    1.3830   -1.4920 hc        1 3A5      0.048200
     19 H22C        0.4970    1.4970   -0.6600 hc        1 3A5      0.048200
     20 H3         -0.9530    0.1000    1.2510 h1        1 3A5      0.101700
     21 H51        -4.7880   -0.9710   -0.2040 h1        1 3A5      0.024367
     22 H52        -3.9800   -2.5780   -0.5170 h1        1 3A5      0.024367
     23 H53        -4.5510   -2.1600    1.1840 h1        1 3A5      0.024367
     24 C1         -1.0980    2.4660    0.4000 c         1 3A5      0.901600
@<TRIPOS>BOND
     1    1    2 1   
     2    1    3 1   
     3    1    9 2   
     4    2   15 1   
     5    2   16 1   
     6    2   17 1   
     7    3    4 1   
     8    3   14 1   
     9    5   24 1   
    10    6   24 1   
    11    7    8 1   
    12    7   18 1   
    13    7   19 1   
    14    7   24 1   
    15    8    9 1   
    16    8   10 1   
    17    8   20 1   
    18   10   11 2   
    19   10   12 1   
    20   12   13 1   
    21   13   21 1   
    22   13   22 1   
    23   13   23 1   
@<TRIPOS>SUBSTRUCTURE
     1 3A5         1 TEMP              0 ****  ****    0 ROOT
