@<TRIPOS>MOLECULE
3A5
   24    21     1     0     0
SMALL
bcc


@<TRIPOS>ATOM
      1 CA          0.1280   -0.3790    2.0730 c1        1 3A5     -0.037000
      2 CB          1.6410   -0.3790    2.0730 c2        1 3A5     -0.239000
      3 C          -0.6290   -0.3790    3.3840 c2        1 3A5      0.374000
      4 O          -0.8920    0.7090    3.9580 o         1 3A5     -0.574000
      5 O1          1.8780   -2.1850   -2.1240 o         1 3A5     -0.592000
      6 C1          0.7150   -1.7310   -2.2850 c1        1 3A5      0.321000
      7 O2          0.3240   -1.3930   -3.4330 os        1 3A5     -0.599000
      8 C2         -0.2140   -1.5910   -1.0990 c3        1 3A5     -0.230000
      9 C3          0.1850   -0.3790   -0.2860 c3        1 3A5     -0.022000
     10 N          -0.5250   -0.3790    0.9430 n2        1 3A5     -0.215000
     11 C4         -0.1460    0.8770   -1.0600 c2        1 3A5      0.346000
     12 O4          0.7050    1.4130   -1.7420 o         1 3A5     -0.410000
     13 O45        -1.4340    1.4320   -0.9800 os        1 3A5     -0.261000
     14 C5         -1.5970    2.6100   -1.7380 c3        1 3A5     -0.057000
     15 OXT        -0.9950   -1.4680    3.8990 o         1 3A5     -0.574000
     16 HB1         1.9660   -0.3780    2.9940 ha        1 3A5      0.088000
     17 HB2         1.9660    0.4170    1.6120 ha        1 3A5      0.088000
     18 HB3         1.9660   -1.1770    1.6150 ha        1 3A5      0.088000
     19 H21C       -1.1310   -1.4840   -1.4140 hc        1 3A5      0.085500
     20 H22C       -0.1530   -2.3910   -0.5420 hc        1 3A5      0.085500
     21 H3          1.1450   -0.4080   -0.1080 h1        1 3A5      0.139000
     22 H51        -1.4690    2.4080   -2.6850 h1        1 3A5      0.064667
     23 H52        -2.4960    2.9650   -1.6000 h1        1 3A5      0.064667
     24 H53        -0.9380    3.2730   -1.4560 h1        1 3A5      0.064667
@<TRIPOS>BOND
     1    1    3 1   
     2    1   10 1   
     3    2   16 1   
     4    2   17 1   
     5    2   18 1   
     6    3    4 1   
     7    3   15 1   
     8    5    6 1   
     9    6    8 1   
    10    8    9 1   
    11    8   19 1   
    12    8   20 1   
    13    9   10 1   
    14    9   11 1   
    15    9   21 1   
    16   11   12 1   
    17   11   13 1   
    18   13   14 1   
    19   14   22 1   
    20   14   23 1   
    21   14   24 1   
@<TRIPOS>SUBSTRUCTURE
     1 3A5         1 TEMP              0 ****  ****    0 ROOT
