@<TRIPOS>MOLECULE
3A6
   51    54     1     0     0
SMALL
bcc


@<TRIPOS>ATOM
      1 C1         -8.2730    2.7730   -0.3580 c3        1 3A6     -0.149400
      2 C2         -7.7380    1.3890   -0.1780 ca        1 3A6      0.414600
      3 C3         -6.3410    1.1910   -0.1890 ca        1 3A6     -0.240300
      4 C4         -5.8260   -0.1020   -0.0180 cp        1 3A6     -0.002000
      5 C5         -6.7290   -1.1580    0.1570 ca        1 3A6     -0.242300
      6 C6         -8.1050   -0.8670    0.1520 ca        1 3A6      0.402200
      7 N7         -8.6140    0.3650   -0.0080 nb        1 3A6     -0.664000
      8 C8         -4.3840   -0.3400   -0.0240 cp        1 3A6     -0.032000
      9 C9         -3.8130   -1.2570    0.8700 ca        1 3A6     -0.119000
     10 C10        -2.4390   -1.4850    0.8660 ca        1 3A6     -0.106500
     11 C11        -1.6160   -0.7930   -0.0300 cp        1 3A6     -0.158500
     12 C12        -2.1810    0.1150   -0.9330 ca        1 3A6     -0.106500
     13 C13        -3.5550    0.3420   -0.9270 ca        1 3A6     -0.119000
     14 C14        -0.1590   -1.0430   -0.0370 cp        1 3A6      0.423800
     15 C15         0.7410    0.0800    0.2740 ca        1 3A6      0.156300
     16 C16         2.1200   -0.1810    0.2290 ca        1 3A6     -0.252600
     17 C17         2.5930   -1.5010   -0.0210 ca        1 3A6     -0.033300
     18 C18         3.9640   -1.8480    0.0370 ca        1 3A6     -0.201000
     19 C19         4.3660   -3.1500   -0.2320 ca        1 3A6      0.162900
     20 C20         3.4120   -4.1560   -0.5610 ca        1 3A6     -0.182000
     21 C21         2.0780   -3.8440   -0.5900 ca        1 3A6     -0.109300
     22 C22         1.6300   -2.5150   -0.3080 ca        1 3A6      0.325600
     23 N23         0.2730   -2.2570   -0.3160 nb        1 3A6     -0.595000
     24 F24         5.6760   -3.4820   -0.1790 f         1 3A6     -0.132900
     25 C25         3.0630    0.9440    0.4510 c         1 3A6      0.724700
     26 O26         3.0250    1.6640    1.4670 o         1 3A6     -0.601100
     27 N27         3.9870    1.2320   -0.5530 n         1 3A6     -0.674300
     28 S28         4.9640    2.5620   -0.6860 s6        1 3A6      1.464600
     29 O29         5.8160    2.3200   -1.7820 o         1 3A6     -0.642800
     30 O30         4.2040    3.7380   -0.7330 o         1 3A6     -0.642800
     31 C31         5.8700    2.5340    0.7380 c3        1 3A6     -0.379300
     32 N32         0.2350    1.3250    0.5280 nh        1 3A6     -0.841200
     33 H11C       -8.9280    2.8230   -1.2630 hc        1 3A6      0.054367
     34 H12C       -8.8810    3.0750    0.5310 hc        1 3A6      0.054367
     35 H13C       -7.4350    3.5010   -0.4820 hc        1 3A6      0.054367
     36 H3         -5.6640    2.0460   -0.3240 ha        1 3A6      0.144000
     37 H5         -6.3780   -2.1900    0.2860 ha        1 3A6      0.147000
     38 H6         -8.8490   -1.6740    0.2850 h4        1 3A6      0.024100
     39 H9         -4.4550   -1.7990    1.5810 ha        1 3A6      0.143000
     40 H13        -3.9950    1.0500   -1.6450 ha        1 3A6      0.143000
     41 H10        -2.0010   -2.2160    1.5620 ha        1 3A6      0.148000
     42 H12        -1.5430    0.6410   -1.6600 ha        1 3A6      0.148000
     43 H321       -0.7420    1.4140    0.6820 hn        1 3A6      0.444300
     44 H322        0.8300    2.0080    0.9390 hn        1 3A6      0.444300
     45 H18         4.7190   -1.1060    0.3300 ha        1 3A6      0.149000
     46 H20         3.7680   -5.1730   -0.7790 ha        1 3A6      0.157000
     47 H21         1.3310   -4.6200   -0.8300 ha        1 3A6      0.159000
     48 H27         4.0060    0.5570   -1.2900 hn        1 3A6      0.347500
     49 H311        6.5810    1.6740    0.8010 h1        1 3A6      0.129033
     50 H312        6.4950    3.4600    0.8270 h1        1 3A6      0.129033
     51 H313        5.2420    2.4990    1.6670 h1        1 3A6      0.129033
@<TRIPOS>BOND
     1    1    2 1   
     2    1   33 1   
     3    1   34 1   
     4    1   35 1   
     5    2    3 ar  
     6    2    7 ar  
     7    3    4 ar  
     8    3   36 1   
     9    4    5 ar  
    10    4    8 1   
    11    5    6 ar  
    12    5   37 1   
    13    6    7 ar  
    14    6   38 1   
    15    8    9 ar  
    16    8   13 ar  
    17    9   10 ar  
    18    9   39 1   
    19   10   11 ar  
    20   10   41 1   
    21   11   12 ar  
    22   11   14 1   
    23   12   13 ar  
    24   12   42 1   
    25   13   40 1   
    26   14   15 ar  
    27   14   23 ar  
    28   15   16 ar  
    29   15   32 1   
    30   16   17 ar  
    31   16   25 1   
    32   17   18 ar  
    33   17   22 ar  
    34   18   19 ar  
    35   18   45 1   
    36   19   20 ar  
    37   19   24 1   
    38   20   21 ar  
    39   20   46 1   
    40   21   22 ar  
    41   21   47 1   
    42   22   23 ar  
    43   25   26 2   
    44   25   27 1   
    45   27   28 1   
    46   27   48 1   
    47   28   29 2   
    48   28   30 2   
    49   28   31 1   
    50   31   49 1   
    51   31   50 1   
    52   31   51 1   
    53   32   43 1   
    54   32   44 1   
@<TRIPOS>SUBSTRUCTURE
     1 3A6         1 TEMP              0 ****  ****    0 ROOT
