@<TRIPOS>MOLECULE
3A6
   52    55     1     0     0
SMALL
bcc


@<TRIPOS>ATOM
      1 C1         -0.0630   -0.1610    0.0770 c3        1 3A6     -0.153400
      2 C2          1.4310   -0.1870    0.0430 ca        1 3A6      0.422600
      3 C3          2.1440   -0.1110    1.2590 ca        1 3A6     -0.239300
      4 C4          3.5450   -0.1350    1.2380 cp        1 3A6     -0.022000
      5 C5          4.1920   -0.2320   -0.0000 ca        1 3A6     -0.239300
      6 C6          3.4010   -0.2990   -1.1610 ca        1 3A6      0.409200
      7 N7          2.0580   -0.2810   -1.1590 nb        1 3A6     -0.652000
      8 C8          4.3120   -0.0600    2.4800 cp        1 3A6     -0.003000
      9 C9          5.4650   -0.8420    2.6490 ca        1 3A6     -0.115500
     10 C10         6.1970   -0.7740    3.8310 ca        1 3A6     -0.105500
     11 C11         5.7820    0.0770    4.8630 cp        1 3A6     -0.199500
     12 C12         4.6440    0.8740    4.6950 ca        1 3A6     -0.105500
     13 C13         3.9100    0.7980    3.5130 ca        1 3A6     -0.115500
     14 C14         6.5690    0.1670    6.1100 cp        1 3A6      0.439800
     15 C15         6.5990   -1.0400    6.9860 ca        1 3A6      0.231300
     16 C16         7.2490   -0.8880    8.2420 ca        1 3A6     -0.334600
     17 C17         8.0850    0.2660    8.4600 ca        1 3A6     -0.040300
     18 C18         9.0390    0.3340    9.4920 ca        1 3A6     -0.258000
     19 C19         9.7780    1.5040    9.6900 ca        1 3A6      0.195900
     20 C20         9.5950    2.6280    8.8450 ca        1 3A6     -0.174000
     21 C21         8.7200    2.5450    7.7840 ca        1 3A6     -0.081300
     22 C22         7.9710    1.3570    7.5520 ca        1 3A6      0.324600
     23 N23         7.1780    1.2840    6.4120 nb        1 3A6     -0.555000
     24 F24        10.6820    1.5610   10.6910 f         1 3A6     -0.114900
     25 C25         7.0270   -1.8680    9.2710 c         1 3A6      0.605700
     26 O26         6.8040   -3.0810    9.1720 o         1 3A6     -0.543100
     27 N27         6.9320   -1.3710   10.6920 ny        1 3A6     -0.619700
     28 S28         5.3090   -1.7890   11.5550 s6        1 3A6      1.420900
     29 O29         5.3140   -0.8520   12.5670 o         1 3A6     -0.561300
     30 O30         4.3810   -1.7410   10.5400 o         1 3A6     -0.561300
     31 C31         5.6730   -3.3040   12.0660 c3        1 3A6     -0.466300
     32 N32         5.9800   -2.1650    6.5940 nv        1 3A6     -0.790200
     33 H11C       -0.4810   -1.0760   -0.4130 hc        1 3A6      0.059033
     34 H12C       -0.4280   -0.1190    1.1310 hc        1 3A6      0.059033
     35 H13C       -0.4470    0.7350   -0.4730 hc        1 3A6      0.059033
     36 H3          1.6000   -0.0400    2.2110 ha        1 3A6      0.142000
     37 H5          5.2870   -0.2430   -0.0730 ha        1 3A6      0.147000
     38 H6          3.8730   -0.3720   -2.1590 h4        1 3A6      0.032100
     39 H9          5.7950   -1.5110    1.8380 ha        1 3A6      0.155000
     40 H13         3.0180    1.4310    3.3830 ha        1 3A6      0.155000
     41 H10         7.1160   -1.3710    3.9390 ha        1 3A6      0.145000
     42 H12         4.3340    1.5700    5.4900 ha        1 3A6      0.145000
     43 H321        5.9780   -2.9840    7.1600 hn        1 3A6      0.470800
     44 H322        5.4770   -2.1840    5.7310 hn        1 3A6      0.470800
     45 H18         9.3020   -0.5480   10.0910 ha        1 3A6      0.132000
     46 H20        10.1770    3.5440    9.0340 ha        1 3A6      0.178000
     47 H21         8.6040    3.4010    7.0950 ha        1 3A6      0.179000
     48 H27         7.0580   -0.3530   10.6900 hn        1 3A6      0.467300
     49 H311        6.0430   -4.0100   11.2650 h1        1 3A6      0.178367
     50 H312        4.7700   -3.8410   12.4860 h1        1 3A6      0.178367
     51 H313        6.4300   -3.3690   12.8960 h1        1 3A6      0.178367
     52 H272        7.7170   -1.7640   11.2100 hn        1 3A6      0.467300
@<TRIPOS>BOND
     1    1    2 1   
     2    1   33 1   
     3    1   34 1   
     4    1   35 1   
     5    2    3 ar  
     6    2    7 ar  
     7    3    4 ar  
     8    3   36 1   
     9    4    5 ar  
    10    4    8 1   
    11    5    6 ar  
    12    5   37 1   
    13    6    7 ar  
    14    6   38 1   
    15    8    9 ar  
    16    8   13 ar  
    17    9   10 ar  
    18    9   39 1   
    19   10   11 ar  
    20   10   41 1   
    21   11   12 ar  
    22   11   14 1   
    23   12   13 ar  
    24   12   42 1   
    25   13   40 1   
    26   14   15 ar  
    27   14   23 ar  
    28   15   16 ar  
    29   15   32 1   
    30   16   17 ar  
    31   16   25 1   
    32   17   18 ar  
    33   17   22 ar  
    34   18   19 ar  
    35   18   45 1   
    36   19   20 ar  
    37   19   24 1   
    38   20   21 ar  
    39   20   46 1   
    40   21   22 ar  
    41   21   47 1   
    42   22   23 ar  
    43   25   26 2   
    44   25   27 1   
    45   27   28 1   
    46   27   48 1   
    47   27   52 1   
    48   28   29 2   
    49   28   30 2   
    50   28   31 1   
    51   31   49 1   
    52   31   50 1   
    53   31   51 1   
    54   32   43 1   
    55   32   44 1   
@<TRIPOS>SUBSTRUCTURE
     1 3A6         1 TEMP              0 ****  ****    0 ROOT
