@<TRIPOS>MOLECULE
3A6
   51    46     1     0     0
SMALL
bcc


@<TRIPOS>ATOM
      1 C1         -4.0950   -1.9680   -6.6740 c3        1 3A6     -0.173000
      2 C2         -3.1430   -0.8330   -6.3610 c2        1 3A6     -0.008000
      3 C3         -2.4070   -0.8500   -5.1860 c2        1 3A6     -0.175000
      4 C4         -1.5440    0.1710   -4.9060 c1        1 3A6     -0.001000
      5 C5         -1.4090    1.2080   -5.7840 c1        1 3A6     -0.117000
      6 C6         -2.1460    1.2230   -6.9580 c1        1 3A6     -0.117000
      7 N7         -3.0070    0.2030   -7.2360 n1        1 3A6     -0.138000
      8 C8         -0.8110    0.2020   -3.5790 c2        1 3A6     -0.033000
      9 C9         -1.3760    0.8460   -2.4900 c2        1 3A6     -0.116000
     10 C10        -0.7160    0.8530   -1.2690 c1        1 3A6     -0.127000
     11 C11         0.5090    0.2160   -1.1390 c1        1 3A6     -0.044000
     12 C12         1.0740   -0.4290   -2.2290 c1        1 3A6     -0.094000
     13 C13         0.4140   -0.4360   -3.4490 c1        1 3A6     -0.116000
     14 C14         1.1920    0.1540    0.2170 c2        1 3A6     -0.015000
     15 C15         0.8810   -0.6220    1.3320 c2        1 3A6      0.145000
     16 C16         1.3060   -0.2350    2.5740 c1        1 3A6     -0.236000
     17 C17         2.0460    0.9290    2.7230 c1        1 3A6      0.032000
     18 C18         2.4750    1.3350    4.0020 c2        1 3A6     -0.203000
     19 C19         3.2060    2.5070    4.1490 c1        1 3A6      0.125000
     20 C20         3.5160    3.2800    3.0340 c1        1 3A6     -0.117000
     21 C21         3.0930    2.8810    1.7720 c1        1 3A6     -0.117000
     22 C22         2.3520    1.6930    1.6210 c1        1 3A6     -0.071000
     23 N23         1.9200    1.3000    0.3630 n2        1 3A6     -0.068000
     24 F24         3.6250    2.8070    5.3860 f         1 3A6     -0.098000
     25 C25         0.6190   -1.1550    3.5690 c2        1 3A6      0.392000
     26 O26        -0.1360   -2.0190    3.1740 o         1 3A6     -0.338000
     27 N27         0.8140   -0.9650    4.9640 n         1 3A6     -0.860000
     28 S28        -0.2580   -1.6010    6.0380 s4        1 3A6      2.043800
     29 O29        -1.5960   -1.1590    5.7620 o         1 3A6     -0.522400
     30 O30        -0.3910   -3.0210    5.8630 o         1 3A6     -0.522400
     31 C31         0.2240   -1.1990    7.6980 c2        1 3A6     -0.950000
     32 N32         0.3020   -1.8240    0.8460 n3        1 3A6     -0.354000
     33 H11C       -4.7360   -2.0690   -5.9400 hc        1 3A6      0.094000
     34 H12C       -4.5770   -1.7710   -7.5040 hc        1 3A6      0.094000
     35 H13C       -3.5870   -2.8000   -6.7800 hc        1 3A6      0.094000
     36 H3         -2.5050   -1.5910   -4.5590 ha        1 3A6      0.144000
     37 H5         -0.7930    1.9380   -5.5860 ha        1 3A6      0.155500
     38 H6         -2.0490    1.9640   -7.5860 ha        1 3A6      0.155500
     39 H9         -2.2380    1.2950   -2.5810 ha        1 3A6      0.143000
     40 H13         0.8120   -0.8900   -4.2170 ha        1 3A6      0.143000
     41 H10        -1.1130    1.3070   -0.5020 ha        1 3A6      0.143000
     42 H12         1.9360   -0.8780   -2.1380 ha        1 3A6      0.148000
     43 H321       -0.0170   -2.4470    1.4330 hn        1 3A6      0.243500
     44 H322        0.2440   -1.9720   -0.0530 hn        1 3A6      0.243500
     45 H18         2.2590    0.7940    4.7830 ha        1 3A6      0.158000
     46 H20         4.0300    4.1040    3.1390 ha        1 3A6      0.155500
     47 H21         3.3110    3.4240    0.9910 ha        1 3A6      0.155500
     48 H27         1.5530   -0.5270    5.2650 hn        1 3A6      0.251000
     49 H311        0.9520   -1.7910    7.9790 ha        1 3A6      0.157333
     50 H312       -0.5430   -1.3160    8.2980 ha        1 3A6      0.157333
     51 H313        0.5280   -0.2680    7.7330 ha        1 3A6      0.157333
@<TRIPOS>BOND
     1    1    2 1   
     2    1   33 1   
     3    1   34 1   
     4    1   35 1   
     5    2    3 1   
     6    2    7 1   
     7    3    4 1   
     8    3   36 1   
     9    4    8 1   
    10    5    6 1   
    11    5   37 1   
    12    6   38 1   
    13    8    9 1   
    14    8   13 1   
    15    9   10 1   
    16    9   39 1   
    17   10   41 1   
    18   11   12 1   
    19   11   14 1   
    20   12   42 1   
    21   13   40 1   
    22   14   15 1   
    23   14   23 1   
    24   15   16 1   
    25   15   32 1   
    26   16   25 1   
    27   17   18 1   
    28   17   22 1   
    29   18   19 1   
    30   18   45 1   
    31   19   24 1   
    32   20   21 1   
    33   20   46 1   
    34   21   47 1   
    35   22   23 1   
    36   25   26 1   
    37   25   27 1   
    38   27   28 1   
    39   27   48 1   
    40   28   29 1   
    41   28   30 1   
    42   31   49 1   
    43   31   50 1   
    44   31   51 1   
    45   32   43 1   
    46   32   44 1   
@<TRIPOS>SUBSTRUCTURE
     1 3A6         1 TEMP              0 ****  ****    0 ROOT
