@<TRIPOS>MOLECULE
3A6
   53    55     1     0     0
SMALL
bcc


@<TRIPOS>ATOM
      1 C1          0.2870   -0.8260   -0.4580 c3        1 3A6     -0.157400
      2 C2          1.6900   -0.3220   -0.3510 ca        1 3A6      0.433600
      3 C3          2.3320   -0.3430    0.9060 ca        1 3A6     -0.240300
      4 C4          3.6500    0.1250    1.0130 cp        1 3A6     -0.046000
      5 C5          4.2860    0.6040   -0.1400 ca        1 3A6     -0.231300
      6 C6          3.5650    0.5920   -1.3500 ca        1 3A6      0.418200
      7 N7          2.3060    0.1440   -1.4690 nb        1 3A6     -0.634000
      8 C8          4.3440    0.1160    2.2970 cp        1 3A6      0.038000
      9 C9          5.7100   -0.1950    2.3690 ca        1 3A6     -0.113000
     10 C10         6.3780   -0.1870    3.5920 ca        1 3A6     -0.106000
     11 C11         5.6800    0.1130    4.7680 cp        1 3A6     -0.261500
     12 C12         4.3150    0.4400    4.7040 ca        1 3A6     -0.106000
     13 C13         3.6550    0.4370    3.4820 ca        1 3A6     -0.113000
     14 C14         6.3920    0.1610    6.0560 cp        1 3A6      0.522800
     15 C15         5.9330   -0.6710    7.1440 ca        1 3A6     -0.120700
     16 C16         6.5710   -0.6020    8.3910 ca        1 3A6     -0.106600
     17 C17         7.7590    0.1660    8.5040 ca        1 3A6     -0.085300
     18 C18         8.6030    0.1490    9.6420 ca        1 3A6     -0.243000
     19 C19         9.7220    0.9680    9.7020 ca        1 3A6      0.223900
     20 C20        10.0560    1.8380    8.6110 ca        1 3A6     -0.120000
     21 C21         9.2950    1.8310    7.4790 ca        1 3A6     -0.115300
     22 C22         8.1390    0.9740    7.3700 ca        1 3A6      0.421600
     23 N23         7.4490    0.9640    6.1950 nb        1 3A6     -0.563000
     24 F24        10.5180    0.9470   10.7860 f         1 3A6     -0.087900
     25 C25         5.9650   -1.3020    9.5570 c         1 3A6      0.649700
     26 O26         5.4570   -2.4380    9.4610 o         1 3A6     -0.594100
     27 N27         5.9360   -0.6940   10.8370 n         1 3A6     -0.700000
     28 S28         6.8790   -2.1590   12.8300 s4        1 3A6      1.658500
     29 O29         8.0990   -1.7250   12.4680 o         1 3A6     -0.384400
     30 O30         6.0100   -1.4560   13.5760 o         1 3A6     -0.384400
     31 C31         6.4550   -3.6180   12.3860 c3        1 3A6     -0.609800
     32 N32         4.8160   -1.5740    6.8870 n4        1 3A6     -0.709000
     33 H11C       -0.0760   -1.1850    0.5350 hc        1 3A6      0.064367
     34 H12C        0.2310   -1.6710   -1.1900 hc        1 3A6      0.064367
     35 H13C       -0.3910   -0.0110   -0.8180 hc        1 3A6      0.064367
     36 H3          1.8010   -0.7320    1.7850 ha        1 3A6      0.135000
     37 H5          5.3110    0.9950   -0.1110 ha        1 3A6      0.150000
     38 H6          4.0280    0.9660   -2.2840 h4        1 3A6      0.044100
     39 H9          6.2640   -0.4390    1.4460 ha        1 3A6      0.170000
     40 H13         2.5890    0.7180    3.4290 ha        1 3A6      0.170000
     41 H10         7.4570   -0.4070    3.6260 ha        1 3A6      0.141000
     42 H12         3.7770    0.7660    5.6070 ha        1 3A6      0.141000
     43 H321        4.9790   -2.4810    7.3510 hn        1 3A6      0.479133
     44 H322        3.9410   -1.1660    7.2340 hn        1 3A6      0.479133
     45 H18         8.4430   -0.5620   10.4660 ha        1 3A6      0.151000
     46 H20        10.9440    2.4890    8.7060 ha        1 3A6      0.200000
     47 H21         9.5580    2.4770    6.6180 ha        1 3A6      0.201000
     48 H27         6.3720    0.2150   10.8580 hn        1 3A6      0.326500
     49 H311        5.9660   -3.7060   11.3570 h1        1 3A6      0.226367
     50 H312        7.2930   -4.3850   12.3040 h1        1 3A6      0.226367
     51 H313        5.6930   -4.1440   13.0480 h1        1 3A6      0.226367
     52 H272        5.0070   -0.6570   11.2260 hn        1 3A6      0.326500
     53 H323        4.7280   -1.7160    5.8630 hn        1 3A6      0.479133
@<TRIPOS>BOND
     1    1    2 1   
     2    1   33 1   
     3    1   34 1   
     4    1   35 1   
     5    2    3 ar  
     6    2    7 ar  
     7    3    4 ar  
     8    3   36 1   
     9    4    5 ar  
    10    4    8 1   
    11    5    6 ar  
    12    5   37 1   
    13    6    7 ar  
    14    6   38 1   
    15    8    9 ar  
    16    8   13 ar  
    17    9   10 ar  
    18    9   39 1   
    19   10   11 ar  
    20   10   41 1   
    21   11   12 ar  
    22   11   14 1   
    23   12   13 ar  
    24   12   42 1   
    25   13   40 1   
    26   14   15 ar  
    27   14   23 ar  
    28   15   16 ar  
    29   15   32 1   
    30   16   17 ar  
    31   16   25 1   
    32   17   18 ar  
    33   17   22 ar  
    34   18   19 ar  
    35   18   45 1   
    36   19   20 ar  
    37   19   24 1   
    38   20   21 ar  
    39   20   46 1   
    40   21   22 ar  
    41   21   47 1   
    42   22   23 ar  
    43   25   26 2   
    44   25   27 1   
    45   27   48 1   
    46   27   52 1   
    47   28   29 1   
    48   28   30 1   
    49   28   31 1   
    50   31   49 1   
    51   31   50 1   
    52   31   51 1   
    53   32   43 1   
    54   32   44 1   
    55   32   53 1   
@<TRIPOS>SUBSTRUCTURE
     1 3A6         1 TEMP              0 ****  ****    0 ROOT
