@<TRIPOS>MOLECULE
3A6
   52    55     1     0     0
SMALL
bcc


@<TRIPOS>ATOM
      1 C1          0.1870   -1.2050   -0.0050 c3        1 3A6     -0.152400
      2 C2          1.4830   -0.4620    0.0540 ca        1 3A6      0.422600
      3 C3          2.2480   -0.5160    1.2400 ca        1 3A6     -0.240300
      4 C4          3.4670    0.1730    1.3040 cp        1 3A6     -0.021000
      5 C5          3.8830    0.8990    0.1800 ca        1 3A6     -0.237300
      6 C6          3.0540    0.8990   -0.9560 ca        1 3A6      0.409200
      7 N7          1.8850    0.2420   -1.0350 nb        1 3A6     -0.651000
      8 C8          4.2840    0.1360    2.5160 cp        1 3A6     -0.002000
      9 C9          5.6800    0.0450    2.4280 ca        1 3A6     -0.115500
     10 C10         6.4610    0.0160    3.5820 ca        1 3A6     -0.104500
     11 C11         5.8500    0.0680    4.8390 cp        1 3A6     -0.199500
     12 C12         4.4560    0.1710    4.9360 ca        1 3A6     -0.104500
     13 C13         3.6800    0.2020    3.7810 ca        1 3A6     -0.115500
     14 C14         6.6810    0.0550    6.0610 cp        1 3A6      0.439800
     15 C15         6.4890   -1.0840    7.0050 ca        1 3A6      0.231300
     16 C16         7.1820   -0.9960    8.2440 ca        1 3A6     -0.335600
     17 C17         8.2480   -0.0370    8.3790 ca        1 3A6     -0.039300
     18 C18         9.2150   -0.1080    9.3990 ca        1 3A6     -0.257000
     19 C19        10.1950    0.8830    9.5100 ca        1 3A6      0.195900
     20 C20        10.2440    1.9580    8.5880 ca        1 3A6     -0.174000
     21 C21         9.3510    1.9980    7.5410 ca        1 3A6     -0.082300
     22 C22         8.3550    0.9890    7.3970 ca        1 3A6      0.324600
     23 N23         7.5320    1.0240    6.2760 nb        1 3A6     -0.556000
     24 F24        11.1090    0.8080   10.5000 f         1 3A6     -0.114900
     25 C25         6.7790   -1.8440    9.3330 c         1 3A6      0.605700
     26 O26         6.3070   -2.9870    9.3120 o         1 3A6     -0.543100
     27 N27         6.8130   -1.2510   10.7190 n4        1 3A6     -0.619700
     28 S28         5.1490   -1.2510   11.6030 s6        1 3A6      1.420900
     29 O29         5.3660   -0.2740   12.5510 o         1 3A6     -0.561800
     30 O30         4.2410   -1.0710   10.5840 o         1 3A6     -0.561800
     31 C31         5.1840   -2.7730   12.2140 c3        1 3A6     -0.466300
     32 N32         5.6650   -2.0920    6.6750 nh        1 3A6     -0.789200
     33 H11C       -0.0060   -1.7290    0.9620 hc        1 3A6      0.058700
     34 H12C        0.2110   -1.9630   -0.8270 hc        1 3A6      0.058700
     35 H13C       -0.6570   -0.4980   -0.2070 hc        1 3A6      0.058700
     36 H3          1.8900   -1.1010    2.0980 ha        1 3A6      0.140000
     37 H5          4.8240    1.4640    0.1820 ha        1 3A6      0.148000
     38 H6          3.3440    1.4630   -1.8630 h4        1 3A6      0.033100
     39 H9          6.1640   -0.0030    1.4390 ha        1 3A6      0.154500
     40 H13         2.5850    0.2960    3.8590 ha        1 3A6      0.154500
     41 H10         7.5580   -0.0390    3.5010 ha        1 3A6      0.144500
     42 H12         3.9720    0.2560    5.9200 ha        1 3A6      0.144500
     43 H321        5.5330   -2.8750    7.2770 hn        1 3A6      0.471300
     44 H322        5.1610   -2.0630    5.8140 hn        1 3A6      0.471300
     45 H18         9.2910   -0.9830   10.0590 ha        1 3A6      0.131000
     46 H20        11.0150    2.7360    8.7090 ha        1 3A6      0.178000
     47 H21         9.4080    2.8110    6.7940 ha        1 3A6      0.179000
     48 H27         7.1570   -0.2870   10.6520 hn        1 3A6      0.467300
     49 H311        4.1910   -3.0750   12.6660 h1        1 3A6      0.178367
     50 H312        5.3850   -3.5930   11.4630 h1        1 3A6      0.178367
     51 H313        5.9180   -2.9460   13.0490 h1        1 3A6      0.178367
     52 H272        7.5000   -1.7710   11.2630 hn        1 3A6      0.467300
@<TRIPOS>BOND
     1    1    2 1   
     2    1   33 1   
     3    1   34 1   
     4    1   35 1   
     5    2    3 ar  
     6    2    7 ar  
     7    3    4 ar  
     8    3   36 1   
     9    4    5 ar  
    10    4    8 1   
    11    5    6 ar  
    12    5   37 1   
    13    6    7 ar  
    14    6   38 1   
    15    8    9 ar  
    16    8   13 ar  
    17    9   10 ar  
    18    9   39 1   
    19   10   11 ar  
    20   10   41 1   
    21   11   12 ar  
    22   11   14 1   
    23   12   13 ar  
    24   12   42 1   
    25   13   40 1   
    26   14   15 ar  
    27   14   23 ar  
    28   15   16 ar  
    29   15   32 1   
    30   16   17 ar  
    31   16   25 1   
    32   17   18 ar  
    33   17   22 ar  
    34   18   19 ar  
    35   18   45 1   
    36   19   20 ar  
    37   19   24 1   
    38   20   21 ar  
    39   20   46 1   
    40   21   22 ar  
    41   21   47 1   
    42   22   23 ar  
    43   25   26 2   
    44   25   27 1   
    45   27   28 1   
    46   27   48 1   
    47   27   52 1   
    48   28   29 2   
    49   28   30 2   
    50   28   31 1   
    51   31   49 1   
    52   31   50 1   
    53   31   51 1   
    54   32   43 1   
    55   32   44 1   
@<TRIPOS>SUBSTRUCTURE
     1 3A6         1 TEMP              0 ****  ****    0 ROOT
