@<TRIPOS>MOLECULE
3A7
   60    58     1     0     0
SMALL
bcc


@<TRIPOS>ATOM
      1 C1          1.8610    1.6080   -1.2320 c2        1 3A7     -0.089000
      2 C2          1.2280    1.3130    0.0680 c2        1 3A7     -0.102000
      3 C3          2.0360    0.8490    1.0500 c2        1 3A7     -0.155000
      4 C4          3.5380    0.8150    0.9570 c3        1 3A7     -0.102000
      5 C5          4.0100    1.8090   -0.0720 c2        1 3A7     -0.099000
      6 C6          3.1440    1.9180   -1.0670 c1        1 3A7     -0.100000
      7 C7          0.7150    3.7300   -2.7740 c3        1 3A7      0.007000
      8 C18        -0.8600   -1.2030   -9.2060 c1        1 3A7      0.169000
      9 C17         0.9880   -2.1840   -6.3040 c3        1 3A7     -0.156000
     10 C19         2.4380   -5.1170   -2.4890 cu        1 3A7     -0.043000
     11 C20         2.3170   -3.6980   -2.3480 cu        1 3A7      0.099000
     12 N3          1.9080   -2.5530   -2.7650 nh        1 3A7     -0.176000
     13 C22         6.0100   -2.3940   -3.3340 c1        1 3A7     -0.117000
     14 N2          4.9790   -2.8290   -3.0300 n1        1 3A7     -0.140000
     15 C21         2.9810   -4.5370   -1.3960 cu        1 3A7     -0.043000
     16 N1          0.3740   -1.8900   -5.0360 n3        1 3A7     -0.381000
     17 C16         0.3090    2.9870   -5.6460 c3        1 3A7     -0.194000
     18 C15        -0.0330    2.1150   -4.4750 c2        1 3A7      0.021000
     19 C14        -0.9700    1.1540   -4.5980 c2        1 3A7     -0.252000
     20 C13        -1.6180    4.7020   -2.9880 c3        1 3A7     -0.124000
     21 C12        -2.9430    4.8690   -2.2690 c3        1 3A7     -0.154000
     22 C11        -2.7590    5.5350   -0.9220 c3        1 3A7     -0.157000
     23 C10        -1.8340    4.7270   -0.0330 c3        1 3A7     -0.134000
     24 C9         -0.6440    4.2180   -0.7560 c2        1 3A7     -0.133000
     25 C8         -0.5410    4.2010   -2.0930 c2        1 3A7     -0.151000
     26 N           0.6760    2.3610   -3.2610 n         1 3A7     -0.261000
     27 C           1.1500    1.3070   -2.5000 c2        1 3A7      0.391000
     28 O           1.0260    0.1150   -2.8710 o         1 3A7     -0.431000
     29 BR          4.1530   -1.0130    0.6730 br        1 3A7     -0.048000
     30 H1          0.1360    1.3780    0.1600 ha        1 3A7      0.165000
     31 H2          1.6200    0.4580    1.9920 ha        1 3A7      0.162000
     32 H3          3.9860    1.1140    1.9420 h1        1 3A7      0.165000
     33 H4          4.8970    2.4190    0.1210 ha        1 3A7      0.182000
     34 H5          1.5880    3.8340   -2.0660 h1        1 3A7      0.109500
     35 H6          0.9170    4.4040   -3.6580 h1        1 3A7      0.109500
     36 H7          0.4230   -1.7680   -7.1860 h1        1 3A7      0.084667
     37 H8          1.0570   -3.2970   -6.4290 h1        1 3A7      0.084667
     38 H9          2.0250   -1.7560   -6.3180 h1        1 3A7      0.084667
     39 H10         2.2250   -5.9840   -3.0930 ha        1 3A7      0.235500
     40 H11         1.3740   -2.4340   -3.6520 hn        1 3A7      0.309000
     41 H12         2.0980   -1.7090   -2.2490 hn        1 3A7      0.309000
     42 H14         3.5310   -4.5900   -0.4710 ha        1 3A7      0.235500
     43 H15         0.3510   -0.8990   -4.8600 hn        1 3A7      0.171500
     44 H17        -0.5620   -2.2440   -5.0010 hn        1 3A7      0.171500
     45 H18        -0.0440    2.5060   -6.5900 hc        1 3A7      0.096667
     46 H19        -0.1970    3.9810   -5.5490 hc        1 3A7      0.096667
     47 H20        -1.7480    3.9940   -3.8510 hc        1 3A7      0.090000
     48 H21        -1.4860    0.9910   -5.5520 ha        1 3A7      0.129500
     49 H22        -1.2680    0.4930   -3.7740 ha        1 3A7      0.129500
     50 H23        -1.2940    5.6910   -3.4160 hc        1 3A7      0.090000
     51 H24        -3.4200    3.8640   -2.1260 hc        1 3A7      0.086000
     52 H25        -3.6340    5.4820   -2.9030 hc        1 3A7      0.086000
     53 H26        -2.3350    6.5620   -1.0700 hc        1 3A7      0.089000
     54 H27        -3.7540    5.6510   -0.4190 hc        1 3A7      0.089000
     55 H28        -1.5020    5.3610    0.8330 hc        1 3A7      0.094000
     56 H29        -2.3920    3.8490    0.3950 hc        1 3A7      0.094000
     57 H30         6.9640   -1.9920   -3.6140 ha        1 3A7      0.259000
     58 H31         0.1720    3.8400   -0.1170 ha        1 3A7      0.117000
     59 H121        1.4110    3.1550   -5.7260 hc        1 3A7      0.096667
     60 O1         -1.2400   -1.0840  -10.3050 o         1 3A7     -0.167000
@<TRIPOS>BOND
     1    1    2 1   
     2    1    6 1   
     3    1   27 1   
     4    2    3 1   
     5    2   30 1   
     6    3    4 1   
     7    3   31 1   
     8    4    5 1   
     9    4   29 1   
    10    4   32 1   
    11    5    6 1   
    12    5   33 1   
    13    7   25 1   
    14    7   26 1   
    15    7   34 1   
    16    7   35 1   
    17    8   60 1   
    18    9   16 1   
    19    9   36 1   
    20    9   37 1   
    21    9   38 1   
    22   10   11 1   
    23   10   15 1   
    24   10   39 1   
    25   11   12 1   
    26   11   15 1   
    27   12   40 1   
    28   12   41 1   
    29   13   14 1   
    30   13   57 1   
    31   15   42 1   
    32   16   43 1   
    33   16   44 1   
    34   17   18 1   
    35   17   45 1   
    36   17   46 1   
    37   17   59 1   
    38   18   19 1   
    39   18   26 1   
    40   19   48 1   
    41   19   49 1   
    42   20   21 1   
    43   20   25 1   
    44   20   47 1   
    45   20   50 1   
    46   21   22 1   
    47   21   51 1   
    48   21   52 1   
    49   22   23 1   
    50   22   53 1   
    51   22   54 1   
    52   23   24 1   
    53   23   55 1   
    54   23   56 1   
    55   24   25 1   
    56   24   58 1   
    57   26   27 1   
    58   27   28 1   
@<TRIPOS>SUBSTRUCTURE
     1 3A7         1 TEMP              0 ****  ****    0 ROOT
