@<TRIPOS>MOLECULE
3A8
   35    38     1     0     0
SMALL
bcc


@<TRIPOS>ATOM
      1 CAJ         0.0850    0.3040    0.2880 ca        1 3A8     -0.072500
      2 CAH         1.4640    0.1330    0.3560 ca        1 3A8     -0.187500
      3 CAP         2.0240   -0.4810    1.4860 ca        1 3A8      0.139100
      4 OAB         3.3750   -0.6880    1.6280 oh        1 3A8     -0.493100
      5 CAI         1.2090   -0.9210    2.5430 ca        1 3A8     -0.187500
      6 CAK        -0.1670   -0.7410    2.4550 ca        1 3A8     -0.072500
      7 CAR        -0.7380   -0.1280    1.3320 ca        1 3A8     -0.158300
      8 CAV        -2.2280    0.0440    1.2670 c3        1 3A8      0.221300
      9 CAU        -2.6690    1.4270    0.8740 cc        1 3A8     -0.242600
     10 NAM        -2.8770   -0.8300    0.2560 n         1 3A8     -0.542900
     11 CAO        -3.5240   -0.0880   -0.7580 c         1 3A8      0.732100
     12 OAA        -4.0620   -0.5580   -1.7670 o         1 3A8     -0.598500
     13 CAT        -3.4520    1.3220   -0.3190 cd        1 3A8     -0.215900
     14 NAN        -3.8880    2.5860   -0.6380 na        1 3A8      0.072400
     15 NAL        -3.4550    3.4770    0.2470 nd        1 3A8     -0.511800
     16 CAS        -2.7020    2.8190    1.2100 cc        1 3A8      0.410800
     17 CAQ        -2.0880    3.4820    2.3480 ca        1 3A8     -0.121500
     18 CAF        -2.2570    4.8580    2.5650 ca        1 3A8     -0.106500
     19 CAD        -1.6650    5.4700    3.6690 ca        1 3A8     -0.135500
     20 CAC        -0.9020    4.7230    4.5650 ca        1 3A8     -0.120000
     21 CAE        -0.7300    3.3550    4.3540 ca        1 3A8     -0.135500
     22 CAG        -1.3180    2.7360    3.2540 ca        1 3A8     -0.106500
     23 H1         -0.3610    0.7940   -0.5920 ha        1 3A8      0.141000
     24 H2          2.1080    0.4770   -0.4660 ha        1 3A8      0.147500
     25 H3          3.8170   -0.3310    0.8430 ho        1 3A8      0.423000
     26 H4          1.6680   -1.3990    3.4200 ha        1 3A8      0.147500
     27 H5         -0.8100   -1.0830    3.2810 ha        1 3A8      0.141000
     28 H6         -2.6820   -0.2280    2.2680 h1        1 3A8      0.086700
     29 H7         -2.4310   -1.6840    0.0220 hn        1 3A8      0.320500
     30 H8         -4.4560    2.8610   -1.4090 hn        1 3A8      0.340700
     31 H9         -2.8560    5.4640    1.8690 ha        1 3A8      0.143000
     32 H10        -1.8030    6.5500    3.8310 ha        1 3A8      0.133500
     33 H11        -0.4370    5.2100    5.4350 ha        1 3A8      0.132000
     34 H12        -0.1270    2.7610    5.0570 ha        1 3A8      0.133500
     35 H13        -1.1730    1.6560    3.0880 ha        1 3A8      0.143000
@<TRIPOS>BOND
     1    1    2 ar  
     2    1    7 ar  
     3    1   23 1   
     4    2    3 ar  
     5    2   24 1   
     6    3    4 1   
     7    3    5 ar  
     8    4   25 1   
     9    5    6 ar  
    10    5   26 1   
    11    6    7 ar  
    12    6   27 1   
    13    7    8 1   
    14    8    9 1   
    15    8   10 1   
    16    8   28 1   
    17    9   13 2   
    18    9   16 1   
    19   10   11 1   
    20   10   29 1   
    21   11   12 2   
    22   11   13 1   
    23   13   14 1   
    24   14   15 1   
    25   14   30 1   
    26   15   16 2   
    27   16   17 1   
    28   17   18 ar  
    29   17   22 ar  
    30   18   19 ar  
    31   18   31 1   
    32   19   20 ar  
    33   19   32 1   
    34   20   21 ar  
    35   20   33 1   
    36   21   22 ar  
    37   21   34 1   
    38   22   35 1   
@<TRIPOS>SUBSTRUCTURE
     1 3A8         1 TEMP              0 ****  ****    0 ROOT
