@<TRIPOS>MOLECULE
3A8
   35    38     1     0     0
SMALL
bcc


@<TRIPOS>ATOM
      1 CAJ         0.0800    0.2690    0.3180 ca        1 3A8     -0.072500
      2 CAH         1.4580    0.0880    0.3940 ca        1 3A8     -0.187500
      3 CAP         2.0090   -0.5080    1.5390 ca        1 3A8      0.139100
      4 OAB         3.3580   -0.7220    1.6900 oh        1 3A8     -0.493100
      5 CAI         1.1870   -0.9210    2.6010 ca        1 3A8     -0.187500
      6 CAK        -0.1870   -0.7320    2.5040 ca        1 3A8     -0.072500
      7 CAR        -0.7490   -0.1380    1.3670 ca        1 3A8     -0.158300
      8 CAV        -2.2380    0.0450    1.2930 c3        1 3A8      0.221300
      9 CAU        -2.6670    1.4230    0.8700 cc        1 3A8     -0.242600
     10 NAM        -2.8900   -0.8450    0.2970 n         1 3A8     -0.542900
     11 CAO        -3.5270   -0.1190   -0.7340 c         1 3A8      0.732100
     12 OAA        -4.0650   -0.6050   -1.7350 o         1 3A8     -0.598500
     13 CAT        -3.4470    1.3000   -0.3230 cd        1 3A8     -0.215900
     14 NAN        -3.8720    2.5600   -0.6690 na        1 3A8      0.072400
     15 NAL        -3.4350    3.4660    0.1990 nd        1 3A8     -0.511800
     16 CAS        -2.6900    2.8210    1.1780 cc        1 3A8      0.410800
     17 CAQ        -2.0760    3.5020    2.3050 ca        1 3A8     -0.121500
     18 CAF        -2.2350    4.8840    2.4940 ca        1 3A8     -0.106500
     19 CAD        -1.6420    5.5140    3.5870 ca        1 3A8     -0.135500
     20 CAC        -0.8880    4.7790    4.5010 ca        1 3A8     -0.120000
     21 CAE        -0.7260    3.4060    4.3180 ca        1 3A8     -0.135500
     22 CAG        -1.3150    2.7700    3.2290 ca        1 3A8     -0.106500
     23 H1         -0.3580    0.7450   -0.5730 ha        1 3A8      0.141000
     24 H2          2.1080    0.4120   -0.4310 ha        1 3A8      0.147500
     25 H3          3.8060   -0.3840    0.9000 ho        1 3A8      0.423000
     26 H4          1.6390   -1.3860    3.4890 ha        1 3A8      0.147500
     27 H5         -0.8360   -1.0540    3.3340 ha        1 3A8      0.141000
     28 H6         -2.6980   -0.2030    2.2970 h1        1 3A8      0.086700
     29 H7         -2.4500   -1.7070    0.0830 hn        1 3A8      0.320500
     30 H8         -4.4350    2.8240   -1.4480 hn        1 3A8      0.340700
     31 H9         -2.8270    5.4800    1.7830 ha        1 3A8      0.143000
     32 H10        -1.7720    6.5970    3.7260 ha        1 3A8      0.133500
     33 H11        -0.4220    5.2800    5.3620 ha        1 3A8      0.132000
     34 H12        -0.1300    2.8220    5.0350 ha        1 3A8      0.133500
     35 H13        -1.1770    1.6850    3.0850 ha        1 3A8      0.143000
@<TRIPOS>BOND
     1    1    2 ar  
     2    1    7 ar  
     3    1   23 1   
     4    2    3 ar  
     5    2   24 1   
     6    3    4 1   
     7    3    5 ar  
     8    4   25 1   
     9    5    6 ar  
    10    5   26 1   
    11    6    7 ar  
    12    6   27 1   
    13    7    8 1   
    14    8    9 1   
    15    8   10 1   
    16    8   28 1   
    17    9   13 2   
    18    9   16 1   
    19   10   11 1   
    20   10   29 1   
    21   11   12 2   
    22   11   13 1   
    23   13   14 1   
    24   14   15 1   
    25   14   30 1   
    26   15   16 2   
    27   16   17 1   
    28   17   18 ar  
    29   17   22 ar  
    30   18   19 ar  
    31   18   31 1   
    32   19   20 ar  
    33   19   32 1   
    34   20   21 ar  
    35   20   33 1   
    36   21   22 ar  
    37   21   34 1   
    38   22   35 1   
@<TRIPOS>SUBSTRUCTURE
     1 3A8         1 TEMP              0 ****  ****    0 ROOT
