@<TRIPOS>MOLECULE
3A8
   35    38     1     0     0
SMALL
bcc


@<TRIPOS>ATOM
      1 CAJ         0.0750    0.2800    0.3010 ca        1 3A8     -0.072500
      2 CAH         1.4540    0.1010    0.3700 ca        1 3A8     -0.187500
      3 CAP         2.0120   -0.5010    1.5070 ca        1 3A8      0.139100
      4 OAB         3.3620   -0.7130    1.6500 oh        1 3A8     -0.493100
      5 CAI         1.1960   -0.9220    2.5720 ca        1 3A8     -0.187500
      6 CAK        -0.1780   -0.7350    2.4840 ca        1 3A8     -0.072500
      7 CAR        -0.7480   -0.1350    1.3530 ca        1 3A8     -0.158300
      8 CAV        -2.2380    0.0450    1.2880 c3        1 3A8      0.221300
      9 CAU        -2.6710    1.4250    0.8780 cc        1 3A8     -0.242600
     10 NAM        -2.8930   -0.8380    0.2890 ns        1 3A8     -0.542900
     11 CAO        -3.5370   -0.1060   -0.7340 c         1 3A8      0.732100
     12 OAA        -4.0790   -0.5860   -1.7360 o         1 3A8     -0.598500
     13 CAT        -3.4570    1.3100   -0.3130 cd        1 3A8     -0.215900
     14 NAN        -3.8860    2.5720   -0.6480 na        1 3A8      0.072400
     15 NAL        -3.4460    3.4720    0.2250 nd        1 3A8     -0.511800
     16 CAS        -2.6950    2.8220    1.1960 cc        1 3A8      0.410800
     17 CAQ        -2.0760    3.4950    2.3240 ca        1 3A8     -0.121500
     18 CAF        -2.2340    4.8760    2.5230 ca        1 3A8     -0.106500
     19 CAD        -1.6370    5.4990    3.6170 ca        1 3A8     -0.135500
     20 CAC        -0.8790    4.7590    4.5230 ca        1 3A8     -0.120000
     21 CAE        -0.7170    3.3870    4.3310 ca        1 3A8     -0.135500
     22 CAG        -1.3110    2.7570    3.2400 ca        1 3A8     -0.106500
     23 H1         -0.3690    0.7600   -0.5840 ha        1 3A8      0.141000
     24 H2          2.0990    0.4310   -0.4570 ha        1 3A8      0.147500
     25 H3          3.8050   -0.3690    0.8600 ho        1 3A8      0.423000
     26 H4          1.6540   -1.3910    3.4540 ha        1 3A8      0.147500
     27 H5         -0.8220   -1.0630    3.3150 ha        1 3A8      0.141000
     28 H6         -2.6910   -0.2110    2.2930 h1        1 3A8      0.086700
     29 H7         -2.4520   -1.6980    0.0660 hn        1 3A8      0.320500
     30 H8         -4.4530    2.8410   -1.4210 hn        1 3A8      0.340700
     31 H9         -2.8300    5.4770    1.8180 ha        1 3A8      0.143000
     32 H10        -1.7670    6.5820    3.7640 ha        1 3A8      0.133500
     33 H11        -0.4100    5.2540    5.3860 ha        1 3A8      0.132000
     34 H12        -0.1180    2.7980    5.0410 ha        1 3A8      0.133500
     35 H13        -1.1730    1.6740    3.0880 ha        1 3A8      0.143000
@<TRIPOS>BOND
     1    1    2 ar  
     2    1    7 ar  
     3    1   23 1   
     4    2    3 ar  
     5    2   24 1   
     6    3    4 1   
     7    3    5 ar  
     8    4   25 1   
     9    5    6 ar  
    10    5   26 1   
    11    6    7 ar  
    12    6   27 1   
    13    7    8 1   
    14    8    9 1   
    15    8   10 1   
    16    8   28 1   
    17    9   13 2   
    18    9   16 1   
    19   10   11 1   
    20   10   29 1   
    21   11   12 2   
    22   11   13 1   
    23   13   14 1   
    24   14   15 1   
    25   14   30 1   
    26   15   16 2   
    27   16   17 1   
    28   17   18 ar  
    29   17   22 ar  
    30   18   19 ar  
    31   18   31 1   
    32   19   20 ar  
    33   19   32 1   
    34   20   21 ar  
    35   20   33 1   
    36   21   22 ar  
    37   21   34 1   
    38   22   35 1   
@<TRIPOS>SUBSTRUCTURE
     1 3A8         1 TEMP              0 ****  ****    0 ROOT
