@<TRIPOS>MOLECULE
3A9
   19    20     1     0     0
SMALL
bcc


@<TRIPOS>ATOM
      1 C1          0.0370    0.1430   -0.0280 c         1 3A9      0.910200
      2 O1          1.2990    0.1750    0.0230 o         1 3A9     -0.833800
      3 C2         -0.7290    0.0370    1.2830 ca        1 3A9     -0.154600
      4 O2         -0.6310    0.1950   -1.1000 o         1 3A9     -0.833800
      5 C3         -0.0400   -0.0240    2.4950 ca        1 3A9     -0.084000
      6 O3         -2.9290   -0.2530    4.7930 os        1 3A9     -0.345900
      7 C4         -0.7110   -0.1220    3.7230 ca        1 3A9     -0.177000
      8 C5         -2.0950   -0.1570    3.6770 ca        1 3A9      0.080100
      9 C6         -4.2970   -0.2590    4.3090 c3        1 3A9      0.123400
     10 C7         -4.2750   -0.1580    2.7720 c3        1 3A9     -0.041100
     11 C8         -2.8180   -0.0980    2.4600 ca        1 3A9     -0.191300
     12 C9         -2.1350   -0.0010    1.2620 ca        1 3A9     -0.054000
     13 H3          1.0620    0.0090    2.4660 ha        1 3A9      0.154000
     14 H4         -0.1690   -0.1690    4.6730 ha        1 3A9      0.124000
     15 H6A        -4.8030    0.6160    4.7860 h1        1 3A9      0.035700
     16 H6B        -4.7530   -1.2140    4.6660 h1        1 3A9      0.035700
     17 H7A        -4.7620   -1.0480    2.3040 hc        1 3A9      0.047700
     18 H7B        -4.8110    0.7580    2.4220 hc        1 3A9      0.047700
     19 H9         -2.6480    0.0490    0.2890 ha        1 3A9      0.156000
@<TRIPOS>BOND
     1    1    2 1   
     2    1    3 1   
     3    1    4 1   
     4    3    5 ar  
     5    3   12 ar  
     6    5    7 ar  
     7    5   13 1   
     8    6    8 1   
     9    6    9 1   
    10    7    8 ar  
    11    7   14 1   
    12    8   11 ar  
    13    9   10 1   
    14    9   15 1   
    15    9   16 1   
    16   10   11 1   
    17   10   17 1   
    18   10   18 1   
    19   11   12 ar  
    20   12   19 1   
@<TRIPOS>SUBSTRUCTURE
     1 3A9         1 TEMP              0 ****  ****    0 ROOT
