@<TRIPOS>MOLECULE
3AB
   19    19     1     0     0
SMALL
bcc


@<TRIPOS>ATOM
      1 N3         -0.0270   -0.1480    0.0090 nv        1 3AB     -0.858200
      2 C3          1.3390   -0.0560   -0.0050 ca        1 3AB      0.217600
      3 C2          2.0750    0.0290    1.2060 ca        1 3AB     -0.147000
      4 C4          2.0660   -0.0760   -1.2280 ca        1 3AB     -0.148000
      5 C5          3.4520   -0.0200   -1.2270 ca        1 3AB     -0.066000
      6 C6          4.1730    0.0550   -0.0350 ca        1 3AB     -0.168000
      7 C1          3.4750    0.0770    1.1790 ca        1 3AB     -0.144600
      8 C1'         4.1340    0.1600    2.4790 c         1 3AB      0.576700
      9 O1'         3.6620    0.3370    3.5920 o         1 3AB     -0.417100
     10 N1'         5.6480   -0.0160    2.4890 nz        1 3AB     -0.763400
     11 HN3        -0.5290   -0.1170   -0.8440 hn        1 3AB      0.448300
     12 HN3A       -0.5220   -0.0370    0.8590 hn        1 3AB      0.448300
     13 H2          1.5500    0.0550    2.1760 ha        1 3AB      0.167000
     14 H4          1.5270   -0.1370   -2.1880 ha        1 3AB      0.165000
     15 H5          3.9950   -0.0340   -2.1880 ha        1 3AB      0.164000
     16 H6          5.2680    0.1100   -0.0920 ha        1 3AB      0.122000
     17 HN1'        6.0880    0.7590    1.9850 hn        1 3AB      0.467467
     18 HN1A        5.8960   -0.8950    2.0280 hn        1 3AB      0.467467
     19 H1'3        5.9910   -0.0270    3.4570 hn        1 3AB      0.467467
@<TRIPOS>BOND
     1    1    2 1   
     2    1   11 1   
     3    1   12 1   
     4    2    3 ar  
     5    2    4 ar  
     6    3    7 ar  
     7    3   13 1   
     8    4    5 ar  
     9    4   14 1   
    10    5    6 ar  
    11    5   15 1   
    12    6    7 ar  
    13    6   16 1   
    14    7    8 1   
    15    8    9 2   
    16    8   10 1   
    17   10   17 1   
    18   10   18 1   
    19   10   19 1   
@<TRIPOS>SUBSTRUCTURE
     1 3AB         1 TEMP              0 ****  ****    0 ROOT
