@<TRIPOS>MOLECULE
3AB
   18    18     1     0     0
SMALL
bcc


@<TRIPOS>ATOM
      1 N3          2.7910   -1.4060    0.3750 nh        1 3AB     -0.818200
      2 C3          1.8110   -0.4440    0.1100 ca        1 3AB      0.134600
      3 C2          0.4490   -0.8140    0.0070 ca        1 3AB     -0.143000
      4 C4          2.1460    0.9270    0.0190 ca        1 3AB     -0.174000
      5 C5          1.1510    1.8820   -0.1570 ca        1 3AB     -0.100000
      6 C6         -0.1900    1.5130   -0.2450 ca        1 3AB     -0.151000
      7 C1         -0.5330    0.1610   -0.1580 ca        1 3AB     -0.101600
      8 C1'        -1.9500   -0.2940   -0.2650 c         1 3AB      0.669700
      9 O1'        -2.2650   -1.3480   -0.8560 o         1 3AB     -0.612100
     10 N1'        -2.9240    0.4780    0.3200 n         1 3AB     -0.673000
     11 HN3         2.5410   -2.3320    0.1090 hn        1 3AB      0.392800
     12 HN3A        3.7090   -1.1470    0.0910 hn        1 3AB      0.392800
     13 H2          0.1470   -1.8730    0.0490 ha        1 3AB      0.155000
     14 H4          3.1970    1.2450    0.0910 ha        1 3AB      0.135000
     15 H5          1.4290    2.9450   -0.2300 ha        1 3AB      0.134000
     16 H6         -0.9580    2.2830   -0.4020 ha        1 3AB      0.134000
     17 HN1'       -2.6910    1.2800    0.8450 hn        1 3AB      0.313000
     18 HN1A       -3.8670    0.1810    0.2870 hn        1 3AB      0.313000
@<TRIPOS>BOND
     1    1    2 1   
     2    1   11 1   
     3    1   12 1   
     4    2    3 ar  
     5    2    4 ar  
     6    3    7 ar  
     7    3   13 1   
     8    4    5 ar  
     9    4   14 1   
    10    5    6 ar  
    11    5   15 1   
    12    6    7 ar  
    13    6   16 1   
    14    7    8 1   
    15    8    9 2   
    16    8   10 1   
    17   10   17 1   
    18   10   18 1   
@<TRIPOS>SUBSTRUCTURE
     1 3AB         1 TEMP              0 ****  ****    0 ROOT
