@<TRIPOS>MOLECULE
3AB
   18    16     1     0     0
SMALL
bcc


@<TRIPOS>ATOM
      1 N3         -3.0110   -0.0120   -0.6250 n3        1 3AB     -0.327000
      2 C3         -1.5940    0.0530   -0.6320 c2        1 3AB      0.053000
      3 C2         -0.8940    0.0120    0.5630 c2        1 3AB     -0.143000
      4 C4         -0.9080    0.0540   -1.8370 c1        1 3AB     -0.174000
      5 C5          0.4780    0.0140   -1.8460 c1        1 3AB     -0.125500
      6 C6          1.1780   -0.0270   -0.6500 c1        1 3AB     -0.125500
      7 C1          0.4920   -0.0280    0.5540 c1        1 3AB     -0.081000
      8 C1'         1.2570   -0.0070    1.8600 c2        1 3AB      0.343000
      9 O1'         0.6570    0.0460    2.9140 o         1 3AB     -0.373000
     10 N1'         2.6750   -0.0090    1.8510 n         1 3AB     -0.433000
     11 HN3        -3.4690    0.0880    0.1610 hn        1 3AB      0.188000
     12 HN3A       -3.4630   -0.2050   -1.3950 hn        1 3AB      0.188000
     13 H2         -1.3770    0.0110    1.4120 ha        1 3AB      0.155000
     14 H4         -1.4010    0.0830   -2.6800 ha        1 3AB      0.135000
     15 H5          0.9610    0.0150   -2.6940 ha        1 3AB      0.134000
     16 H6          2.1550   -0.0550   -0.6560 ha        1 3AB      0.134000
     17 HN1'        3.1270   -0.2190    1.0840 hn        1 3AB      0.226500
     18 HN1A        3.1370    0.1860    2.6150 hn        1 3AB      0.226500
@<TRIPOS>BOND
     1    1    2 1   
     2    1   11 1   
     3    1   12 1   
     4    2    3 1   
     5    2    4 1   
     6    3    7 1   
     7    3   13 1   
     8    4   14 1   
     9    5    6 1   
    10    5   15 1   
    11    6   16 1   
    12    7    8 1   
    13    8    9 1   
    14    8   10 1   
    15   10   17 1   
    16   10   18 1   
@<TRIPOS>SUBSTRUCTURE
     1 3AB         1 TEMP              0 ****  ****    0 ROOT
