@<TRIPOS>MOLECULE
3AB
   19    19     1     0     0
SMALL
bcc


@<TRIPOS>ATOM
      1 N3         -0.0270   -0.0910    0.0000 nh        1 3AB     -0.858200
      2 C3          1.3400   -0.0320   -0.0110 ca        1 3AB      0.217600
      3 C2          2.0740    0.0660    1.2010 ca        1 3AB     -0.147000
      4 C4          2.0710   -0.1010   -1.2300 ca        1 3AB     -0.148000
      5 C5          3.4580   -0.0790   -1.2240 ca        1 3AB     -0.066000
      6 C6          4.1770    0.0100   -0.0320 ca        1 3AB     -0.168000
      7 C1          3.4750    0.0800    1.1780 ca        1 3AB     -0.144600
      8 C1'         4.1310    0.1790    2.4780 c         1 3AB      0.576700
      9 O1'         3.6590    0.3940    3.5850 o         1 3AB     -0.417100
     10 N1'         5.6410   -0.0290    2.4990 n4        1 3AB     -0.763400
     11 HN3        -0.5220    0.0530    0.8450 hn        1 3AB      0.448300
     12 HN3A       -0.5250   -0.0700   -0.8550 hn        1 3AB      0.448300
     13 H2          1.5460    0.1300    2.1680 ha        1 3AB      0.167000
     14 H4          1.5340   -0.1740   -2.1900 ha        1 3AB      0.165000
     15 H5          4.0040   -0.1300   -2.1820 ha        1 3AB      0.164000
     16 H6          5.2730    0.0360   -0.0860 ha        1 3AB      0.122000
     17 HN1'        5.8720   -0.9250    2.0620 hn        1 3AB      0.467467
     18 HN1A        5.9810   -0.0230    3.4690 hn        1 3AB      0.467467
     19 H1'3        6.1000    0.7230    1.9770 hn        1 3AB      0.467467
@<TRIPOS>BOND
     1    1    2 1   
     2    1   11 1   
     3    1   12 1   
     4    2    3 ar  
     5    2    4 ar  
     6    3    7 ar  
     7    3   13 1   
     8    4    5 ar  
     9    4   14 1   
    10    5    6 ar  
    11    5   15 1   
    12    6    7 ar  
    13    6   16 1   
    14    7    8 1   
    15    8    9 2   
    16    8   10 1   
    17   10   17 1   
    18   10   18 1   
    19   10   19 1   
@<TRIPOS>SUBSTRUCTURE
     1 3AB         1 TEMP              0 ****  ****    0 ROOT
