@<TRIPOS>MOLECULE
3AB
   20    20     1     0     0
SMALL
bcc


@<TRIPOS>ATOM
      1 N3         -0.0780    0.0350   -0.0220 n4        1 3AB     -0.709000
      2 C3          1.3860    0.0210   -0.0250 ca        1 3AB     -0.052400
      3 C2          2.0900    0.0220    1.1880 ca        1 3AB     -0.022000
      4 C4          2.0740    0.0070   -1.2560 ca        1 3AB     -0.032000
      5 C5          3.4670   -0.0060   -1.2550 ca        1 3AB     -0.086000
      6 C6          4.1830   -0.0050   -0.0560 ca        1 3AB     -0.036000
      7 C1          3.4980    0.0090    1.1660 ca        1 3AB     -0.168600
      8 C1'         4.1560    0.0120    2.4830 c         1 3AB      0.559700
      9 O1'         3.6080    0.0250    3.5750 o         1 3AB     -0.374100
     10 N1'         5.6630   -0.0030    2.5360 n4        1 3AB     -0.751400
     11 HN3        -0.4410    0.0260    0.9410 hn        1 3AB      0.483467
     12 HN3A       -0.4350   -0.7940   -0.5210 hn        1 3AB      0.483467
     13 H2          1.5690    0.0330    2.1660 ha        1 3AB      0.195000
     14 H4          1.5340    0.0050   -2.2230 ha        1 3AB      0.196000
     15 H5          4.0110   -0.0170   -2.2200 ha        1 3AB      0.210000
     16 H6          5.2850   -0.0150   -0.1130 ha        1 3AB      0.165000
     17 HN1'        5.9700    0.0010    3.5240 hn        1 3AB      0.485800
     18 HN1A        6.0310   -0.8460    2.0800 hn        1 3AB      0.485800
     19 H33        -0.4190    0.8830   -0.5000 hn        1 3AB      0.483467
     20 H1'3        6.0470    0.8280    2.0690 hn        1 3AB      0.485800
@<TRIPOS>BOND
     1    1    2 1   
     2    1   11 1   
     3    1   12 1   
     4    1   19 1   
     5    2    3 ar  
     6    2    4 ar  
     7    3    7 ar  
     8    3   13 1   
     9    4    5 ar  
    10    4   14 1   
    11    5    6 ar  
    12    5   15 1   
    13    6    7 ar  
    14    6   16 1   
    15    7    8 1   
    16    8    9 2   
    17    8   10 1   
    18   10   17 1   
    19   10   18 1   
    20   10   20 1   
@<TRIPOS>SUBSTRUCTURE
     1 3AB         1 TEMP              0 ****  ****    0 ROOT
