@<TRIPOS>MOLECULE
3AC
   37    33     1     0     0
SMALL
bcc


@<TRIPOS>ATOM
      1 O11        -0.4630   -0.9930    0.0010 os        1 3AC     -0.166000
      2 C11         0.9230   -1.0000    0.0560 c2        1 3AC      0.186000
      3 C12         1.5790   -0.9900    1.3020 c1        1 3AC     -0.402000
      4 I12         0.4550   -1.0270    3.0970 i         1 3AC      0.208000
      5 C13         2.8900   -1.0590    1.3560 c2        1 3AC      0.342000
      6 O13         3.4430   -1.1950    2.4330 o         1 3AC     -0.342000
      7 N14         3.6450   -1.1430    0.1610 n2        1 3AC     -0.279000
      8 C15         3.0240   -1.1530   -1.0290 c1        1 3AC      0.096000
      9 C51         3.8460   -1.0930   -2.3110 c3        1 3AC     -0.200000
     10 C16         1.6470   -1.0810   -1.0880 c2        1 3AC     -0.207000
     11 C61         0.9310   -1.1730   -2.4420 c3        1 3AC     -0.101000
     12 C62         0.5950   -2.5190   -2.7060 c3        1 3AC     -0.209000
     13 C21        -0.9780    0.3050    0.4980 c2        1 3AC      0.064000
     14 C22        -0.0860    1.3290    0.8670 c2        1 3AC     -0.162000
     15 C23        -0.5700    2.5400    1.2970 c1        1 3AC     -0.101000
     16 C24        -1.9670    2.7570    1.3690 c1        1 3AC     -0.123000
     17 C25        -2.8570    1.7390    1.0020 c1        1 3AC     -0.046000
     18 C26        -2.3710    0.5270    0.5720 c1        1 3AC     -0.119000
     19 C27        -4.3730    2.0460    0.8850 c2        1 3AC     -0.059000
     20 C28        -5.1700    2.0130    2.0000 c1        1 3AC     -0.097000
     21 N29        -4.1050    1.4110    4.4140 n1        1 3AC     -0.039000
     22 C29        -4.5520    1.6650    3.3990 c1        1 3AC     -0.106000
     23 H14         4.5150   -1.1870    0.1980 hn        1 3AC      0.251000
     24 H511        3.5970   -0.2030   -2.8550 hc        1 3AC      0.105000
     25 H512        4.8080   -1.0820   -2.0860 hc        1 3AC      0.105000
     26 H513        3.6640   -1.8160   -2.8170 hc        1 3AC      0.105000
     27 H611        0.1480   -0.6570   -2.4190 hc        1 3AC      0.089000
     28 H612        1.5290   -0.8340   -3.1590 hc        1 3AC      0.089000
     29 H621        0.6620   -2.6790   -3.6120 hc        1 3AC      0.078000
     30 H622        1.2420   -3.1420   -2.1970 hc        1 3AC      0.078000
     31 H623       -0.2840   -2.6830   -2.4240 hc        1 3AC      0.078000
     32 H22         0.8350    1.1850    0.8200 ha        1 3AC      0.148000
     33 H23         0.0290    3.2270    1.5450 ha        1 3AC      0.143000
     34 H24        -2.3350    3.6750    1.6950 ha        1 3AC      0.146000
     35 H26        -3.0020   -0.1940    0.3120 ha        1 3AC      0.155000
     36 H27        -4.7940    2.2800   -0.0590 ha        1 3AC      0.139000
     37 H28        -6.1000    2.2020    1.9260 ha        1 3AC      0.154000
@<TRIPOS>BOND
     1    1    2 1   
     2    1   13 1   
     3    2    3 1   
     4    2   10 1   
     5    3    5 1   
     6    5    6 1   
     7    5    7 1   
     8    7   23 1   
     9    8    9 1   
    10    8   10 1   
    11    9   24 1   
    12    9   25 1   
    13    9   26 1   
    14   10   11 1   
    15   11   12 1   
    16   11   27 1   
    17   11   28 1   
    18   12   29 1   
    19   12   30 1   
    20   12   31 1   
    21   13   14 1   
    22   13   18 1   
    23   14   15 1   
    24   14   32 1   
    25   15   33 1   
    26   16   17 1   
    27   16   34 1   
    28   17   19 1   
    29   18   35 1   
    30   19   20 1   
    31   19   36 1   
    32   20   37 1   
    33   21   22 1   
@<TRIPOS>SUBSTRUCTURE
     1 3AC         1 TEMP              0 ****  ****    0 ROOT
