@<TRIPOS>MOLECULE
3AC
   37    37     1     0     0
SMALL
bcc


@<TRIPOS>ATOM
      1 O11         0.2560    0.2320   -0.4770 os        1 3AC     -0.165000
      2 C11         1.6290    0.1670   -0.2360 c2        1 3AC      0.186000
      3 C12         2.1470    0.2410    1.0330 c2        1 3AC     -0.402000
      4 I12         1.0400    0.6090    2.6800 i         1 3AC      0.206000
      5 C13         3.5830    0.0220    1.2230 c2        1 3AC      0.342000
      6 O13         4.2040    0.0670    2.3010 o         1 3AC     -0.341000
      7 N14         4.3450   -0.2670    0.0720 ns        1 3AC     -0.279000
      8 C15         3.7980   -0.3480   -1.1880 c2        1 3AC      0.097000
      9 C51         4.6970   -0.6690   -2.3400 c3        1 3AC     -0.201000
     10 C16         2.4450   -0.1240   -1.3850 c2        1 3AC     -0.207000
     11 C61         1.8210   -0.1870   -2.7330 c3        1 3AC     -0.101000
     12 C62         1.2800   -1.5610   -3.0480 c3        1 3AC     -0.209000
     13 C21        -0.3160    1.5030   -0.4550 ca        1 3AC      0.075000
     14 C22         0.4010    2.6760   -0.7150 ca        1 3AC     -0.174000
     15 C23        -0.2870    3.8890   -0.7440 ca        1 3AC     -0.091000
     16 C24        -1.6610    3.9300   -0.5260 ca        1 3AC     -0.150000
     17 C25        -2.3750    2.7470   -0.2690 ca        1 3AC      0.026000
     18 C26        -1.7000    1.5220   -0.2280 ca        1 3AC     -0.133000
     19 C27        -3.8070    2.7850   -0.0400 c2        1 3AC     -0.412000
     20 C28        -4.6130    3.8210   -0.1000 c1        1 3AC      0.173000
     21 N29        -7.4880    7.2400   -0.3990 n1        1 3AC     -0.074000
     22 C29        -6.7480    6.3510   -0.3040 c1        1 3AC     -0.200000
     23 H14         5.3220   -0.4310    0.1950 hn        1 3AC      0.251000
     24 H511        5.7120   -1.0090   -2.0170 hc        1 3AC      0.105667
     25 H512        4.8160    0.2400   -2.9810 hc        1 3AC      0.105667
     26 H513        4.2340   -1.4820   -2.9550 hc        1 3AC      0.105667
     27 H611        0.9780    0.5580   -2.7750 hc        1 3AC      0.089500
     28 H612        2.5670    0.1160   -3.5160 hc        1 3AC      0.089500
     29 H621        0.5090   -1.8530   -2.2930 hc        1 3AC      0.078333
     30 H622        0.8080   -1.5630   -4.0600 hc        1 3AC      0.078333
     31 H623        2.0950   -2.3240   -3.0350 hc        1 3AC      0.078333
     32 H22         1.4860    2.6390   -0.8870 ha        1 3AC      0.149000
     33 H23         0.2640    4.8210   -0.9420 ha        1 3AC      0.142000
     34 H24        -2.1920    4.8930   -0.5510 ha        1 3AC      0.138000
     35 H26        -2.2310    0.5810   -0.0250 ha        1 3AC      0.155000
     36 H27        -4.2750    1.8060    0.2180 ha        1 3AC      0.203000
     37 H28        -6.0600    5.5250   -0.2170 ha        1 3AC      0.265000
@<TRIPOS>BOND
     1    1    2 1   
     2    1   13 1   
     3    2    3 1   
     4    2   10 1   
     5    3    4 1   
     6    3    5 1   
     7    5    6 1   
     8    5    7 1   
     9    7    8 1   
    10    7   23 1   
    11    8    9 1   
    12    8   10 1   
    13    9   24 1   
    14    9   25 1   
    15    9   26 1   
    16   10   11 1   
    17   11   12 1   
    18   11   27 1   
    19   11   28 1   
    20   12   29 1   
    21   12   30 1   
    22   12   31 1   
    23   13   14 1   
    24   13   18 1   
    25   14   15 1   
    26   14   32 1   
    27   15   16 1   
    28   15   33 1   
    29   16   17 1   
    30   16   34 1   
    31   17   18 1   
    32   17   19 1   
    33   18   35 1   
    34   19   20 1   
    35   19   36 1   
    36   21   22 1   
    37   22   37 1   
@<TRIPOS>SUBSTRUCTURE
     1 3AC         1 TEMP              0 ****  ****    0 ROOT
