@<TRIPOS>MOLECULE
3AC
   37    37     1     0     0
SMALL
bcc


@<TRIPOS>ATOM
      1 O11         0.2540    0.2300   -0.4830 os        1 3AC     -0.165000
      2 C11         1.6270    0.1630   -0.2380 c2        1 3AC      0.186000
      3 C12         2.1410    0.2330    1.0330 c2        1 3AC     -0.402000
      4 I12         1.0290    0.5960    2.6780 i         1 3AC      0.206000
      5 C13         3.5760    0.0120    1.2260 c2        1 3AC      0.342000
      6 O13         4.1940    0.0520    2.3050 o         1 3AC     -0.341000
      7 N14         4.3410   -0.2740    0.0760 n         1 3AC     -0.279000
      8 C15         3.7970   -0.3510   -1.1860 c2        1 3AC      0.097000
      9 C51         4.6990   -0.6690   -2.3360 c3        1 3AC     -0.201000
     10 C16         2.4450   -0.1240   -1.3850 c2        1 3AC     -0.207000
     11 C61         1.8250   -0.1820   -2.7360 c3        1 3AC     -0.101000
     12 C62         1.2830   -1.5550   -3.0570 c3        1 3AC     -0.209000
     13 C21        -0.3170    1.5030   -0.4560 ca        1 3AC      0.075000
     14 C22         0.4010    2.6760   -0.7100 ca        1 3AC     -0.174000
     15 C23        -0.2850    3.8890   -0.7360 ca        1 3AC     -0.091000
     16 C24        -1.6600    3.9310   -0.5210 ca        1 3AC     -0.150000
     17 C25        -2.3750    2.7480   -0.2710 ca        1 3AC      0.026000
     18 C26        -1.7010    1.5210   -0.2330 ca        1 3AC     -0.133000
     19 C27        -3.8080    2.7850   -0.0460 c2        1 3AC     -0.412000
     20 C28        -4.6130    3.8230   -0.1020 c1        1 3AC      0.173000
     21 N29        -7.4840    7.2460   -0.3910 n1        1 3AC     -0.074000
     22 C29        -6.7440    6.3560   -0.2990 c1        1 3AC     -0.200000
     23 H14         5.3180   -0.4400    0.2010 hn        1 3AC      0.251000
     24 H511        5.7130   -1.0110   -2.0110 hc        1 3AC      0.105667
     25 H512        4.8210    0.2430   -2.9740 hc        1 3AC      0.105667
     26 H513        4.2360   -1.4790   -2.9550 hc        1 3AC      0.105667
     27 H611        0.9830    0.5640   -2.7770 hc        1 3AC      0.089500
     28 H612        2.5730    0.1230   -3.5160 hc        1 3AC      0.089500
     29 H621        0.5100   -1.8490   -2.3060 hc        1 3AC      0.078333
     30 H622        0.8140   -1.5520   -4.0700 hc        1 3AC      0.078333
     31 H623        2.0970   -2.3180   -3.0440 hc        1 3AC      0.078333
     32 H22         1.4870    2.6390   -0.8800 ha        1 3AC      0.149000
     33 H23         0.2670    4.8210   -0.9280 ha        1 3AC      0.142000
     34 H24        -2.1900    4.8950   -0.5440 ha        1 3AC      0.138000
     35 H26        -2.2340    0.5800   -0.0360 ha        1 3AC      0.155000
     36 H27        -4.2780    1.8060    0.2070 ha        1 3AC      0.203000
     37 H28        -6.0580    5.5290   -0.2150 ha        1 3AC      0.265000
@<TRIPOS>BOND
     1    1    2 1   
     2    1   13 1   
     3    2    3 1   
     4    2   10 1   
     5    3    4 1   
     6    3    5 1   
     7    5    6 1   
     8    5    7 1   
     9    7    8 1   
    10    7   23 1   
    11    8    9 1   
    12    8   10 1   
    13    9   24 1   
    14    9   25 1   
    15    9   26 1   
    16   10   11 1   
    17   11   12 1   
    18   11   27 1   
    19   11   28 1   
    20   12   29 1   
    21   12   30 1   
    22   12   31 1   
    23   13   14 1   
    24   13   18 1   
    25   14   15 1   
    26   14   32 1   
    27   15   16 1   
    28   15   33 1   
    29   16   17 1   
    30   16   34 1   
    31   17   18 1   
    32   17   19 1   
    33   18   35 1   
    34   19   20 1   
    35   19   36 1   
    36   21   22 1   
    37   22   37 1   
@<TRIPOS>SUBSTRUCTURE
     1 3AC         1 TEMP              0 ****  ****    0 ROOT
