@<TRIPOS>MOLECULE
3AC
   37    38     1     0     0
SMALL
bcc


@<TRIPOS>ATOM
      1 O11         0.2450    1.0480    0.7880 os        1 3AC     -0.253200
      2 C11        -1.0340    1.1060    0.2340 cc        1 3AC      0.231100
      3 C12        -1.7020   -0.0160   -0.1900 cd        1 3AC     -0.152400
      4 I12        -0.8970   -1.8670   -0.2080 i         1 3AC     -0.066800
      5 C13        -3.0910    0.1150   -0.6340 c         1 3AC      0.703700
      6 O13        -3.8230   -0.7960   -1.0610 o         1 3AC     -0.617500
      7 N14        -3.6630    1.4040   -0.5800 n         1 3AC     -0.435100
      8 C15        -2.9770    2.5090   -0.1330 cd        1 3AC      0.095400
      9 C51        -3.6830    3.8280   -0.1050 c3        1 3AC     -0.078900
     10 C16        -1.6540    2.4040    0.2690 cc        1 3AC     -0.210200
     11 C61        -0.8760    3.5790    0.7420 c3        1 3AC     -0.017200
     12 C62        -0.9540    3.7490    2.2410 c3        1 3AC     -0.091100
     13 C21         1.2980    0.8320   -0.1010 ca        1 3AC      0.110100
     14 C22         1.2540    1.2020   -1.4500 ca        1 3AC     -0.162000
     15 C23         2.3920    1.0160   -2.2320 ca        1 3AC     -0.102000
     16 C24         3.5550    0.4860   -1.6770 ca        1 3AC     -0.130000
     17 C25         3.5980    0.1250   -0.3220 ca        1 3AC     -0.051800
     18 C26         2.4550    0.2890    0.4730 ca        1 3AC     -0.117000
     19 C27         4.7930   -0.4350    0.2880 ce        1 3AC     -0.048200
     20 C28         6.0350   -0.2840   -0.2020 cf        1 3AC     -0.063700
     21 N29         8.1240   -1.2980    0.9260 n1        1 3AC     -0.362800
     22 C29         7.1750   -0.8450    0.4260 ch        1 3AC      0.183500
     23 H14        -4.6150    1.4980   -0.8650 hn        1 3AC      0.337500
     24 H511       -3.2590    4.4910   -0.9010 hc        1 3AC      0.065700
     25 H512       -4.7840    3.7340   -0.2730 hc        1 3AC      0.065700
     26 H513       -3.5190    4.3140    0.8900 hc        1 3AC      0.065700
     27 H611       -1.2420    4.5120    0.2340 hc        1 3AC      0.050200
     28 H612        0.2000    3.4420    0.4440 hc        1 3AC      0.050200
     29 H621       -0.3470    4.6320    2.5560 hc        1 3AC      0.039367
     30 H622       -2.0090    3.9070    2.5710 hc        1 3AC      0.039367
     31 H623       -0.5550    2.8400    2.7520 hc        1 3AC      0.039367
     32 H22         0.3340    1.6210   -1.8830 ha        1 3AC      0.149000
     33 H23         2.3700    1.2920   -3.2970 ha        1 3AC      0.141000
     34 H24         4.4410    0.3390   -2.3130 ha        1 3AC      0.139000
     35 H26         2.4550    0.0070    1.5370 ha        1 3AC      0.157000
     36 H27         4.6230   -1.0050    1.2210 ha        1 3AC      0.142000
     37 H28         6.2480    0.2920   -1.1200 ha        1 3AC      0.154000
@<TRIPOS>BOND
     1    1    2 1   
     2    1   13 1   
     3    2    3 2   
     4    2   10 1   
     5    3    4 1   
     6    3    5 1   
     7    5    6 2   
     8    5    7 1   
     9    7    8 1   
    10    7   23 1   
    11    8    9 1   
    12    8   10 2   
    13    9   24 1   
    14    9   25 1   
    15    9   26 1   
    16   10   11 1   
    17   11   12 1   
    18   11   27 1   
    19   11   28 1   
    20   12   29 1   
    21   12   30 1   
    22   12   31 1   
    23   13   14 ar  
    24   13   18 ar  
    25   14   15 ar  
    26   14   32 1   
    27   15   16 ar  
    28   15   33 1   
    29   16   17 ar  
    30   16   34 1   
    31   17   18 ar  
    32   17   19 1   
    33   18   35 1   
    34   19   20 2   
    35   19   36 1   
    36   20   22 1   
    37   20   37 1   
    38   21   22 3   
@<TRIPOS>SUBSTRUCTURE
     1 3AC         1 TEMP              0 ****  ****    0 ROOT
