@<TRIPOS>MOLECULE
3AD
   31    29     1     0     0
SMALL
bcc


@<TRIPOS>ATOM
      1 O5'        -2.4220    2.6190   -3.1240 oh        1 3AD     -0.591800
      2 C5'        -0.9660    2.3690   -3.1350 c3        1 3AD      0.109400
      3 C4'        -0.4540    2.3240   -1.6980 c3        1 3AD      0.093100
      4 O4'        -0.8990    1.2570   -1.0930 os        1 3AD     -0.421600
      5 C3'         1.0800    2.1880   -1.6760 c3        1 3AD     -0.106400
      6 C2'         1.3780    1.0300   -0.6920 c3        1 3AD      0.124100
      7 O2'         2.4490    1.4500    0.3090 oh        1 3AD     -0.588800
      8 C1'         0.2550    0.8080   -0.0850 c3        1 3AD      0.224800
      9 N9          0.1270   -0.6080    0.2320 n3        1 3AD     -0.134400
     10 C8         -0.0270   -1.6400   -0.6160 c1        1 3AD      0.186400
     11 N7         -0.3180   -2.7540    0.1240 ne        1 3AD     -0.390400
     12 C5         -0.3410   -2.3930    1.4470 cg        1 3AD     -0.186000
     13 C6         -0.5390   -3.1210    2.6030 c1        1 3AD      0.627600
     14 N6         -0.6040   -4.4900    2.8880 n3        1 3AD     -0.821400
     15 N1         -0.4590   -2.5160    3.7990 n1        1 3AD     -0.595800
     16 C2         -0.1830   -1.1840    3.8730 c1        1 3AD      0.412300
     17 N3          0.0110   -0.4690    2.7440 n1        1 3AD     -0.559800
     18 C4         -0.0690   -1.0800    1.5230 c1        1 3AD      0.005700
     19 HO5'       -2.6620    2.9210   -3.8820 ho        1 3AD      0.408000
     20 H5'1       -0.7900    1.5420   -3.5610 h1        1 3AD      0.055200
     21 H5'2       -0.4860    3.1340   -3.6540 h1        1 3AD      0.055200
     22 H4'        -0.7370    3.1470   -1.2040 h1        1 3AD      0.091700
     23 H3'1        1.4050    1.9750   -2.5460 hc        1 3AD      0.078700
     24 H3'2        1.4700    2.9790   -1.3690 hc        1 3AD      0.078700
     25 H2'         1.6580    0.2490   -1.1720 h1        1 3AD      0.072700
     26 HO2'        3.2340    1.1530    0.0440 ho        1 3AD      0.427000
     27 H1'         0.2060    1.3470    0.7440 h2        1 3AD      0.104700
     28 H8          0.1510   -1.6230   -1.5480 DU        1 3AD      0.209000
     29 HN61       -0.8190   -4.7750    3.7470 hn        1 3AD      0.451300
     30 HN62       -0.5290   -5.1050    2.2050 hn        1 3AD      0.451300
     31 H2         -0.1230   -0.7320    4.7740 ha        1 3AD      0.131500
@<TRIPOS>BOND
     1    1    2 1   
     2    1   19 1   
     3    2    3 1   
     4    2   20 1   
     5    2   21 1   
     6    3    4 1   
     7    3    5 1   
     8    3   22 1   
     9    4    8 1   
    10    5    6 1   
    11    5   23 1   
    12    5   24 1   
    13    6    7 1   
    14    6    8 1   
    15    6   25 1   
    16    7   26 1   
    17    8    9 1   
    18    8   27 1   
    19    9   10 2   
    20    9   18 1   
    21   10   11 2   
    22   11   12 1   
    23   12   18 3   
    24   13   14 1   
    25   13   15 3   
    26   14   29 1   
    27   14   30 1   
    28   16   17 3   
    29   16   31 1   
@<TRIPOS>SUBSTRUCTURE
     1 3AD         1 TEMP              0 ****  ****    0 ROOT
