@<TRIPOS>MOLECULE
3AD
   32    34     1     0     0
SMALL
bcc


@<TRIPOS>ATOM
      1 O5'         0.6350   -1.8120    0.4140 oh        1 3AD     -0.604800
      2 C5'         1.8880   -1.1870    0.2340 c3        1 3AD      0.106400
      3 C4'         2.1370   -0.1080    1.2910 c3        1 3AD      0.092100
      4 O4'         1.4600   -0.4690    2.5130 os        1 3AD     -0.398600
      5 C3'         3.6160    0.0840    1.6090 c3        1 3AD     -0.143400
      6 C2'         3.8140   -0.4320    3.0390 c3        1 3AD      0.121100
      7 O2'         4.2150    0.5870    3.9330 oh        1 3AD     -0.579800
      8 C1'         2.3840   -0.8470    3.5230 c3        1 3AD      0.251800
      9 N9          2.2450   -2.2770    3.7920 na        1 3AD     -0.273000
     10 C8          1.4230   -3.2040    3.1180 cc        1 3AD      0.521700
     11 N7          1.3940   -4.4280    3.6860 nd        1 3AD     -0.599100
     12 C5          2.2220   -4.3230    4.8050 ca        1 3AD     -0.129200
     13 C6          2.6160   -5.2070    5.8220 ca        1 3AD      0.507200
     14 N6          2.0920   -6.5850    5.7930 n4        1 3AD     -0.813300
     15 N1          3.4520   -4.8300    6.8230 nb        1 3AD     -0.679000
     16 C2          3.8940   -3.5410    6.7950 ca        1 3AD      0.664900
     17 N3          3.6130   -2.5620    5.8940 nb        1 3AD     -0.612000
     18 C4          2.7780   -2.9500    4.9010 ca        1 3AD      0.450800
     19 HO5'       -0.0420   -1.1230    0.4120 ho        1 3AD      0.422000
     20 H5'1        1.9560   -0.7260   -0.7870 h1        1 3AD      0.063200
     21 H5'2        2.6320   -2.0250    0.3150 h1        1 3AD      0.063200
     22 H4'         1.6420    0.8560    0.9840 h1        1 3AD      0.096700
     23 H3'1        3.8890    1.1690    1.5500 hc        1 3AD      0.083200
     24 H3'2        4.2620   -0.4760    0.8900 hc        1 3AD      0.083200
     25 H2'         4.5460   -1.2820    3.0710 h1        1 3AD      0.064700
     26 HO2'        5.1000    0.8680    3.6670 ho        1 3AD      0.427000
     27 H1'         2.0930   -0.2840    4.4630 h2        1 3AD      0.138700
     28 H8          0.8680   -2.9080    2.2000 h5        1 3AD      0.144800
     29 HN61        2.3200   -7.0010    4.8820 hn        1 3AD      0.477133
     30 HN62        1.0700   -6.5460    5.8990 hn        1 3AD      0.477133
     31 H2          4.5780   -3.2540    7.6290 h5        1 3AD      0.099100
     32 H63         2.4960   -7.1550    6.5480 hn        1 3AD      0.477133
@<TRIPOS>BOND
     1    1    2 1   
     2    1   19 1   
     3    2    3 1   
     4    2   20 1   
     5    2   21 1   
     6    3    4 1   
     7    3    5 1   
     8    3   22 1   
     9    4    8 1   
    10    5    6 1   
    11    5   23 1   
    12    5   24 1   
    13    6    7 1   
    14    6    8 1   
    15    6   25 1   
    16    7   26 1   
    17    8    9 1   
    18    8   27 1   
    19    9   10 1   
    20    9   18 1   
    21   10   11 2   
    22   10   28 1   
    23   11   12 1   
    24   12   13 ar  
    25   12   18 ar  
    26   13   14 1   
    27   13   15 ar  
    28   14   29 1   
    29   14   30 1   
    30   14   32 1   
    31   15   16 ar  
    32   16   17 ar  
    33   16   31 1   
    34   17   18 ar  
@<TRIPOS>SUBSTRUCTURE
     1 3AD         1 TEMP              0 ****  ****    0 ROOT
