@<TRIPOS>MOLECULE
3AD
   31    33     1     0     0
SMALL
bcc


@<TRIPOS>ATOM
      1 O5'         0.8630   -1.2140   -0.3780 oh        1 3AD     -0.591800
      2 C5'         2.1550   -1.0710    0.1750 c3        1 3AD      0.109400
      3 C4'         2.1700   -0.0220    1.2870 c3        1 3AD      0.093100
      4 O4'         1.3400   -0.4850    2.3690 os        1 3AD     -0.421600
      5 C3'         3.5680    0.2410    1.8330 c3        1 3AD     -0.106400
      6 C2'         3.6030   -0.3820    3.2300 c3        1 3AD      0.124100
      7 O2'         3.9430    0.6220    4.1600 oh        1 3AD     -0.588800
      8 C1'         2.1350   -0.8660    3.4950 c3        1 3AD      0.224800
      9 N9          2.0290   -2.2900    3.7230 na        1 3AD     -0.291000
     10 C8          1.2240   -3.2410    3.0500 cc        1 3AD      0.421700
     11 N7          1.3140   -4.4760    3.5640 nd        1 3AD     -0.545100
     12 C5          2.2150   -4.3640    4.6340 ca        1 3AD     -0.229200
     13 C6          2.7320   -5.3110    5.5830 ca        1 3AD      0.767200
     14 N6          2.3560   -6.6250    5.5200 nv        1 3AD     -0.958500
     15 N1          3.6170   -4.8700    6.5420 nb        1 3AD     -0.796000
     16 C2          3.9590   -3.5560    6.5280 ca        1 3AD      0.691900
     17 N3          3.5630   -2.5580    5.7030 nb        1 3AD     -0.760000
     18 C4          2.6780   -2.9870    4.7530 ca        1 3AD      0.451800
     19 HO5'        0.2550   -1.3700    0.3570 ho        1 3AD      0.408000
     20 H5'1        2.8030   -0.7430   -0.6800 h1        1 3AD      0.055200
     21 H5'2        2.5140   -2.0590    0.5720 h1        1 3AD      0.055200
     22 H4'         1.6660    0.9190    0.9310 h1        1 3AD      0.091700
     23 H3'1        3.7670    1.3410    1.9010 hc        1 3AD      0.078700
     24 H3'2        4.3520   -0.2170    1.1810 hc        1 3AD      0.078700
     25 H2'         4.3390   -1.2280    3.2830 h1        1 3AD      0.072700
     26 HO2'        4.1100    0.1780    5.0040 ho        1 3AD      0.427000
     27 H1'         1.6900   -0.3260    4.3860 h2        1 3AD      0.104700
     28 H8          0.6030   -2.9400    2.1960 h5        1 3AD      0.079800
     29 HN61        1.6830   -6.8980    4.8490 hn        1 3AD      0.451300
     30 HN62        2.6760   -7.2760    6.1930 hn        1 3AD      0.451300
     31 H2          4.6780   -3.2580    7.3230 h5        1 3AD      0.052100
@<TRIPOS>BOND
     1    1    2 1   
     2    1   19 1   
     3    2    3 1   
     4    2   20 1   
     5    2   21 1   
     6    3    4 1   
     7    3    5 1   
     8    3   22 1   
     9    4    8 1   
    10    5    6 1   
    11    5   23 1   
    12    5   24 1   
    13    6    7 1   
    14    6    8 1   
    15    6   25 1   
    16    7   26 1   
    17    8    9 1   
    18    8   27 1   
    19    9   10 1   
    20    9   18 1   
    21   10   11 2   
    22   10   28 1   
    23   11   12 1   
    24   12   13 ar  
    25   12   18 ar  
    26   13   14 1   
    27   13   15 ar  
    28   14   29 1   
    29   14   30 1   
    30   15   16 ar  
    31   16   17 ar  
    32   16   31 1   
    33   17   18 ar  
@<TRIPOS>SUBSTRUCTURE
     1 3AD         1 TEMP              0 ****  ****    0 ROOT
