@<TRIPOS>MOLECULE
3AD
   31    33     1     0     0
SMALL
bcc


@<TRIPOS>ATOM
      1 O5'         1.2010    1.5190   -4.6060 oh        1 3AD     -0.588800
      2 C5'         1.2320    0.7310   -3.4360 c3        1 3AD      0.105400
      3 C4'         0.0290   -0.2140   -3.3730 c3        1 3AD      0.101100
      4 O4'         0.2430   -1.1720   -2.3220 os        1 3AD     -0.412600
      5 C3'        -1.2850    0.5100   -3.0960 c3        1 3AD     -0.108400
      6 C2'        -1.6230    0.2140   -1.6330 c3        1 3AD      0.125100
      7 O2'        -2.9340   -0.3040   -1.5710 oh        1 3AD     -0.589800
      8 C1'        -0.6030   -0.8950   -1.2020 c3        1 3AD      0.222800
      9 N9          0.2020   -0.5350   -0.0550 na        1 3AD     -0.289000
     10 C8          1.6080   -0.6170    0.0930 cc        1 3AD      0.422700
     11 N7          2.0360   -0.2880    1.3200 nd        1 3AD     -0.548100
     12 C5          0.8750    0.0250    2.0420 ca        1 3AD     -0.229200
     13 C6          0.6480    0.4410    3.3980 ca        1 3AD      0.766200
     14 N6          1.7040    0.6260    4.2480 nh        1 3AD     -0.959500
     15 N1         -0.6460    0.6600    3.8160 nb        1 3AD     -0.796000
     16 C2         -1.6410    0.4740    2.9090 ca        1 3AD      0.690900
     17 N3         -1.5810    0.0930    1.6120 nb        1 3AD     -0.761000
     18 C4         -0.2980   -0.1310    1.1910 ca        1 3AD      0.451800
     19 HO5'        1.3030    0.9240   -5.3580 ho        1 3AD      0.400000
     20 H5'1        1.2080    1.4690   -2.5910 h1        1 3AD      0.058700
     21 H5'2        2.1800    0.1320   -3.3800 h1        1 3AD      0.058700
     22 H4'        -0.0260   -0.8280   -4.3140 h1        1 3AD      0.073700
     23 H3'1       -1.1780    1.6090   -3.2690 hc        1 3AD      0.083200
     24 H3'2       -2.1000    0.1270   -3.7610 hc        1 3AD      0.083200
     25 H2'        -1.5350    1.1360   -1.0000 h1        1 3AD      0.073700
     26 HO2'       -3.1890   -0.3120   -0.6380 ho        1 3AD      0.427000
     27 H1'        -1.1410   -1.8650   -0.9730 h2        1 3AD      0.101700
     28 H8          2.2370   -0.9290   -0.7510 h5        1 3AD      0.084800
     29 HN61        1.5560    0.8790    5.1930 hn        1 3AD      0.450300
     30 HN62        2.6170    0.4190    3.9290 hn        1 3AD      0.450300
     31 H2         -2.6630    0.6660    3.3020 h5        1 3AD      0.051100
@<TRIPOS>BOND
     1    1    2 1   
     2    1   19 1   
     3    2    3 1   
     4    2   20 1   
     5    2   21 1   
     6    3    4 1   
     7    3    5 1   
     8    3   22 1   
     9    4    8 1   
    10    5    6 1   
    11    5   23 1   
    12    5   24 1   
    13    6    7 1   
    14    6    8 1   
    15    6   25 1   
    16    7   26 1   
    17    8    9 1   
    18    8   27 1   
    19    9   10 1   
    20    9   18 1   
    21   10   11 2   
    22   10   28 1   
    23   11   12 1   
    24   12   13 ar  
    25   12   18 ar  
    26   13   14 1   
    27   13   15 ar  
    28   14   29 1   
    29   14   30 1   
    30   15   16 ar  
    31   16   17 ar  
    32   16   31 1   
    33   17   18 ar  
@<TRIPOS>SUBSTRUCTURE
     1 3AD         1 TEMP              0 ****  ****    0 ROOT
