@<TRIPOS>MOLECULE
3AD
   31    33     1     0     0
SMALL
bcc


@<TRIPOS>ATOM
      1 O5'         0.8820   -1.2700   -0.4000 oh        1 3AD     -0.591800
      2 C5'         2.1790   -1.1490    0.1450 c3        1 3AD      0.109400
      3 C4'         2.2290   -0.0680    1.2250 c3        1 3AD      0.093100
      4 O4'         1.3890   -0.4740    2.3230 os        1 3AD     -0.421600
      5 C3'         3.6360    0.1700    1.7600 c3        1 3AD     -0.106400
      6 C2'         3.6560   -0.4120    3.1750 c3        1 3AD      0.124100
      7 O2'         4.0290    0.6100    4.0740 oh        1 3AD     -0.588800
      8 C1'         2.1750   -0.8430    3.4580 c3        1 3AD      0.225800
      9 N9          2.0280   -2.2560    3.7290 na        1 3AD     -0.291000
     10 C8          1.1940   -3.2030    3.0870 cc        1 3AD      0.421700
     11 N7          1.2500   -4.4250    3.6370 nd        1 3AD     -0.545100
     12 C5          2.1560   -4.3060    4.7020 ca        1 3AD     -0.229200
     13 C6          2.6470   -5.2380    5.6780 ca        1 3AD      0.767200
     14 N6          2.2330   -6.5420    5.6560 nh        1 3AD     -0.958500
     15 N1          3.5460   -4.7960    6.6220 nb        1 3AD     -0.796000
     16 C2          3.9270   -3.4930    6.5680 ca        1 3AD      0.691900
     17 N3          3.5590   -2.5090    5.7140 nb        1 3AD     -0.760000
     18 C4          2.6590   -2.9410    4.7780 ca        1 3AD      0.451800
     19 HO5'        0.2710   -1.3850    0.3410 ho        1 3AD      0.408000
     20 H5'1        2.5100   -2.1350    0.5710 h1        1 3AD      0.055200
     21 H5'2        2.8340   -0.8660   -0.7210 h1        1 3AD      0.055200
     22 H4'         1.7510    0.8760    0.8420 h1        1 3AD      0.091700
     23 H3'1        3.8680    1.2650    1.7940 hc        1 3AD      0.078700
     24 H3'2        4.4040   -0.3300    1.1210 hc        1 3AD      0.078700
     25 H2'         4.3670   -1.2770    3.2520 h1        1 3AD      0.072700
     26 HO2'        4.1840    0.1870    4.9300 ho        1 3AD      0.427000
     27 H1'         1.7490   -0.2640    4.3330 h2        1 3AD      0.104700
     28 H8          0.5800   -2.9100    2.2250 h5        1 3AD      0.079800
     29 HN61        2.5350   -7.1820    6.3480 hn        1 3AD      0.451300
     30 HN62        1.5500   -6.8160    4.9950 hn        1 3AD      0.451300
     31 H2          4.6560   -3.1930    7.3530 h5        1 3AD      0.052100
@<TRIPOS>BOND
     1    1    2 1   
     2    1   19 1   
     3    2    3 1   
     4    2   20 1   
     5    2   21 1   
     6    3    4 1   
     7    3    5 1   
     8    3   22 1   
     9    4    8 1   
    10    5    6 1   
    11    5   23 1   
    12    5   24 1   
    13    6    7 1   
    14    6    8 1   
    15    6   25 1   
    16    7   26 1   
    17    8    9 1   
    18    8   27 1   
    19    9   10 1   
    20    9   18 1   
    21   10   11 2   
    22   10   28 1   
    23   11   12 1   
    24   12   13 ar  
    25   12   18 ar  
    26   13   14 1   
    27   13   15 ar  
    28   14   29 1   
    29   14   30 1   
    30   15   16 ar  
    31   16   17 ar  
    32   16   31 1   
    33   17   18 ar  
@<TRIPOS>SUBSTRUCTURE
     1 3AD         1 TEMP              0 ****  ****    0 ROOT
