@<TRIPOS>MOLECULE
3AF
   77    79     1     0     0
SMALL
bcc


@<TRIPOS>ATOM
      1 C1          0.3010   -1.2560   -1.1960 c3        1 3AF     -0.106100
      2 C2          1.7860   -1.1150   -0.9560 c3        1 3AF     -0.086400
      3 C3          2.0460   -0.3710    0.3360 c3        1 3AF     -0.130400
      4 C4          3.5150    0.0130    0.5340 c3        1 3AF      0.139500
      5 C5          3.6600    0.9570    1.7160 c3        1 3AF     -0.150100
      6 N6          4.3620   -1.2460    0.7320 ny        1 3AF     -0.811000
      7 C7          5.8390   -1.0690    0.4600 c3        1 3AF      0.410000
      8 N8          6.1880   -0.9540   -1.0180 nz        1 3AF     -0.867600
      9 C9          6.6400   -2.1810    1.0760 ca        1 3AF     -0.274300
     10 C12         7.5910   -1.8480    2.0530 ca        1 3AF     -0.079500
     11 C13         8.3420   -2.8470    2.6610 ca        1 3AF     -0.097500
     12 C10         6.4600   -3.5250    0.7110 ca        1 3AF     -0.079500
     13 C11         7.2140   -4.5230    1.3190 ca        1 3AF     -0.097500
     14 C14         8.1620   -4.2010    2.3110 ca        1 3AF     -0.024500
     15 C15         8.9400   -5.1970    3.0020 cc        1 3AF      0.276200
     16 O18         8.9320   -6.5290    2.5490 os        1 3AF     -0.349800
     17 C16         9.7480   -5.0800    4.1300 cd        1 3AF     -0.173300
     18 C17        10.2690   -6.3870    4.4080 cd        1 3AF     -0.173300
     19 C19         9.7610   -7.2430    3.4340 cc        1 3AF      0.276200
     20 C20         9.9790   -8.6520    3.2310 ca        1 3AF     -0.024500
     21 C23         9.5750   -9.3280    2.0620 ca        1 3AF     -0.097500
     22 C24         9.8470  -10.6820    1.9000 ca        1 3AF     -0.079500
     23 C21        10.6470   -9.3790    4.2370 ca        1 3AF     -0.097500
     24 C22        10.9180  -10.7330    4.0780 ca        1 3AF     -0.079500
     25 C25        10.5240  -11.3940    2.9040 ca        1 3AF     -0.274300
     26 C26        10.8540  -12.8530    2.7690 c3        1 3AF      0.410000
     27 N27         9.5640  -13.6620    2.7440 nz        1 3AF     -0.867600
     28 N28        11.7580  -13.0990    1.5820 ny        1 3AF     -0.811000
     29 C29        12.4920  -14.4420    1.5990 c3        1 3AF      0.139500
     30 C30        13.6800  -14.4020    2.5460 c3        1 3AF     -0.150100
     31 C31        12.9520  -14.8050    0.1840 c3        1 3AF     -0.130400
     32 C32        11.8100  -15.0970   -0.7650 c3        1 3AF     -0.086400
     33 C33        12.3320  -15.6680   -2.0620 c3        1 3AF     -0.106100
     34 H34         0.1180   -1.8250   -2.1400 hc        1 3AF      0.071033
     35 H35        -0.1890   -1.8020   -0.3530 hc        1 3AF      0.071033
     36 H36        -0.1820   -0.2520   -1.2950 hc        1 3AF      0.071033
     37 H37         2.2460   -0.5620   -1.8170 hc        1 3AF      0.025200
     38 H38         2.2440   -2.1400   -0.9230 hc        1 3AF      0.025200
     39 H40         1.4630    0.5970    0.3230 hc        1 3AF      0.114200
     40 H39         1.6630   -0.9570    1.2140 hc        1 3AF      0.114200
     41 H41         3.8950    0.5100   -0.4060 hx        1 3AF      0.081700
     42 H43         4.7200    1.2560    1.8980 hc        1 3AF      0.096700
     43 H42         3.0780    1.8920    1.4890 hc        1 3AF      0.096700
     44 H44         3.2320    0.5180    2.6520 hc        1 3AF      0.096700
     45 H45         3.9630   -2.0100    0.1690 hn        1 3AF      0.478800
     46 H7          6.1260   -0.0610    0.9260 hx        1 3AF      0.170700
     47 H47         5.6750   -0.1950   -1.4840 hn        1 3AF      0.487800
     48 H46         6.0180   -1.8390   -1.5130 hn        1 3AF      0.487800
     49 H50         7.7550   -0.7980    2.3540 ha        1 3AF      0.151500
     50 H51         9.0880   -2.5680    3.4280 ha        1 3AF      0.184000
     51 H48         5.7200   -3.8100   -0.0530 ha        1 3AF      0.151500
     52 H49         7.0690   -5.5790    1.0310 ha        1 3AF      0.184000
     53 H52         9.9560   -4.1830    4.7150 ha        1 3AF      0.198000
     54 H53        10.9420   -6.6340    5.2310 ha        1 3AF      0.198000
     55 H56         9.0450   -8.7710    1.2710 ha        1 3AF      0.184000
     56 H57         9.5280  -11.1800    0.9710 ha        1 3AF      0.151500
     57 H54        10.9630   -8.8730    5.1680 ha        1 3AF      0.184000
     58 H55        11.4460  -11.2710    4.8850 ha        1 3AF      0.151500
     59 H26        11.4330  -13.2210    3.6880 hx        1 3AF      0.170700
     60 H59         9.7370  -14.6730    2.6670 hn        1 3AF      0.487800
     61 H58         8.9470  -13.3600    1.9800 hn        1 3AF      0.487800
     62 H60        11.2490  -13.0070    0.6930 hn        1 3AF      0.478800
     63 H61        11.7430  -15.2120    1.9500 hx        1 3AF      0.081700
     64 H63        13.3860  -14.1340    3.5900 hc        1 3AF      0.096700
     65 H62        14.1370  -15.4280    2.5750 hc        1 3AF      0.096700
     66 H64        14.4700  -13.6940    2.1900 hc        1 3AF      0.096700
     67 H66        13.5880  -15.7330    0.2840 hc        1 3AF      0.114200
     68 H65        13.6210  -14.0070   -0.2360 hc        1 3AF      0.114200
     69 H68        11.1010  -15.8320   -0.2980 hc        1 3AF      0.025200
     70 H67        11.2310  -14.1610   -0.9900 hc        1 3AF      0.025200
     71 H71        13.0430  -14.9600   -2.5520 hc        1 3AF      0.071033
     72 H69        12.8630  -16.6360   -1.8840 hc        1 3AF      0.071033
     73 H70        11.4840  -15.8600   -2.7640 hc        1 3AF      0.071033
     74 H621        4.2880   -1.5250    1.7260 hn        1 3AF      0.478800
     75 H83         7.2020   -0.7500   -1.0710 hn        1 3AF      0.487800
     76 H273        9.0770  -13.4770    3.6380 hn        1 3AF      0.487800
     77 H282       12.4710  -12.3480    1.6090 hn        1 3AF      0.478800
@<TRIPOS>BOND
     1    1    2 1   
     2    1   34 1   
     3    1   35 1   
     4    1   36 1   
     5    2    3 1   
     6    2   37 1   
     7    2   38 1   
     8    3    4 1   
     9    3   39 1   
    10    3   40 1   
    11    4    5 1   
    12    4    6 1   
    13    4   41 1   
    14    5   42 1   
    15    5   43 1   
    16    5   44 1   
    17    6    7 1   
    18    6   45 1   
    19    6   74 1   
    20    7    8 1   
    21    7    9 1   
    22    7   46 1   
    23    8   47 1   
    24    8   48 1   
    25    8   75 1   
    26    9   10 ar  
    27    9   12 ar  
    28   10   11 ar  
    29   10   49 1   
    30   11   14 ar  
    31   11   50 1   
    32   12   13 ar  
    33   12   51 1   
    34   13   14 ar  
    35   13   52 1   
    36   14   15 1   
    37   15   16 1   
    38   15   17 2   
    39   16   19 1   
    40   17   18 1   
    41   17   53 1   
    42   18   19 2   
    43   18   54 1   
    44   19   20 1   
    45   20   21 ar  
    46   20   23 ar  
    47   21   22 ar  
    48   21   55 1   
    49   22   25 ar  
    50   22   56 1   
    51   23   24 ar  
    52   23   57 1   
    53   24   25 ar  
    54   24   58 1   
    55   25   26 1   
    56   26   27 1   
    57   26   28 1   
    58   26   59 1   
    59   27   60 1   
    60   27   61 1   
    61   27   76 1   
    62   28   29 1   
    63   28   62 1   
    64   28   77 1   
    65   29   30 1   
    66   29   31 1   
    67   29   63 1   
    68   30   64 1   
    69   30   65 1   
    70   30   66 1   
    71   31   32 1   
    72   31   67 1   
    73   31   68 1   
    74   32   33 1   
    75   32   69 1   
    76   32   70 1   
    77   33   71 1   
    78   33   72 1   
    79   33   73 1   
@<TRIPOS>SUBSTRUCTURE
     1 3AF         1 TEMP              0 ****  ****    0 ROOT
