@<TRIPOS>MOLECULE
3AF
   73    75     1     0     0
SMALL
bcc


@<TRIPOS>ATOM
      1 C1          9.7300   -3.2600   -2.3530 c3        1 3AF     -0.094100
      2 C2          9.1750   -2.3360   -1.2990 c3        1 3AF     -0.079900
      3 C3          8.2410   -1.3120   -1.9030 c3        1 3AF     -0.090900
      4 C4          7.7560   -0.2780   -0.8720 c3        1 3AF      0.184500
      5 C5          7.0810    0.8660   -1.6350 c3        1 3AF     -0.110100
      6 N6          6.9420   -0.8970    0.1610 n3        1 3AF     -0.870200
      7 C7          6.6030   -0.0280    1.3050 c3        1 3AF      0.450000
      8 N8          6.8160   -0.6560    2.6100 n3        1 3AF     -0.915300
      9 C9          5.1770    0.5050    1.2220 ca        1 3AF     -0.072300
     10 C12         4.9530    1.8830    1.1730 ca        1 3AF     -0.119750
     11 C13         3.6560    2.3810    1.0920 ca        1 3AF     -0.106750
     12 C10         4.0900   -0.3730    1.1990 ca        1 3AF     -0.119750
     13 C11         2.7910    0.1190    1.1170 ca        1 3AF     -0.106750
     14 C14         2.5610    1.5030    1.0610 ca        1 3AF     -0.124500
     15 C15         1.2230    2.0310    0.9760 cc        1 3AF      0.310200
     16 O18         0.1720    1.1020    0.9150 os        1 3AF     -0.358800
     17 C16         0.7120    3.3210    0.9380 cd        1 3AF     -0.245300
     18 C17        -0.7190    3.2040    0.8500 cd        1 3AF     -0.245300
     19 C19        -1.0150    1.8480    0.8380 cc        1 3AF      0.310200
     20 C20        -2.2510    1.1090    0.7660 ca        1 3AF     -0.124500
     21 C23        -2.2570   -0.2940    0.7780 ca        1 3AF     -0.106750
     22 C24        -3.4600   -0.9930    0.7060 ca        1 3AF     -0.119750
     23 C21        -3.4700    1.8000    0.6810 ca        1 3AF     -0.106750
     24 C22        -4.6690    1.0980    0.6110 ca        1 3AF     -0.119750
     25 C25        -4.6700   -0.3000    0.6230 ca        1 3AF     -0.072300
     26 C26        -5.9770   -1.0790    0.5470 c3        1 3AF      0.450000
     27 N27        -6.7660   -0.8270    1.7540 n3        1 3AF     -0.915300
     28 N28        -6.5890   -0.8450   -0.7670 n3        1 3AF     -0.870200
     29 C29        -7.7490   -1.6580   -1.0970 c3        1 3AF      0.184500
     30 C30        -7.4930   -2.4690   -2.3750 c3        1 3AF     -0.110100
     31 C31        -9.0490   -0.8610   -1.3020 c3        1 3AF     -0.090900
     32 C32        -9.5540   -0.2150   -0.0320 c3        1 3AF     -0.079900
     33 C33       -10.8760    0.4740   -0.2560 c3        1 3AF     -0.094100
     34 H34         8.9060   -3.8050   -2.8730 hc        1 3AF      0.033700
     35 H35        10.3070   -2.6870   -3.1190 hc        1 3AF      0.033700
     36 H36        10.4130   -4.0120   -1.8890 hc        1 3AF      0.033700
     37 H37         8.6310   -2.9360   -0.5230 hc        1 3AF      0.039450
     38 H38        10.0190   -1.8110   -0.7770 hc        1 3AF      0.039450
     39 H40         7.3640   -1.8280   -2.3730 hc        1 3AF      0.045700
     40 H39         8.7750   -0.7550   -2.7180 hc        1 3AF      0.045700
     41 H41         8.6700    0.1430   -0.3550 h1        1 3AF      0.046700
     42 H43         6.6660    1.6240   -0.9260 hc        1 3AF      0.038700
     43 H42         6.2460    0.4810   -2.2680 hc        1 3AF      0.038700
     44 H44         7.8260    1.3670   -2.2960 hc        1 3AF      0.038700
     45 H45         6.1250   -1.3200   -0.2330 hn        1 3AF      0.366800
     46 H7          7.3120    0.8630    1.2920 h2        1 3AF      0.073200
     47 H47         7.7340   -1.0540    2.6630 hn        1 3AF      0.351800
     48 H46         6.1430   -1.3790    2.7780 hn        1 3AF      0.351800
     49 H50         5.8030    2.5820    1.2040 ha        1 3AF      0.134250
     50 H51         3.4860    3.4680    1.0550 ha        1 3AF      0.141250
     51 H48         4.2560   -1.4600    1.2500 ha        1 3AF      0.134250
     52 H49         1.9350   -0.5730    1.1000 ha        1 3AF      0.141250
     53 H52         1.2730    4.2510    0.9690 ha        1 3AF      0.161000
     54 H53        -1.4220    4.0300    0.8030 ha        1 3AF      0.161000
     55 H56        -1.3030   -0.8400    0.8440 ha        1 3AF      0.141250
     56 H57        -3.4530   -2.0930    0.7160 ha        1 3AF      0.134250
     57 H54        -3.4750    2.9010    0.6710 ha        1 3AF      0.141250
     58 H55        -5.6170    1.6520    0.5440 ha        1 3AF      0.134250
     59 H26        -5.7360   -2.1910    0.5760 h2        1 3AF      0.073200
     60 H59        -7.6590   -1.2760    1.7090 hn        1 3AF      0.351800
     61 H58        -6.8920    0.1500    1.9240 hn        1 3AF      0.351800
     62 H60        -6.7490    0.1250   -0.9460 hn        1 3AF      0.366800
     63 H61        -7.9380   -2.4060   -0.2680 h1        1 3AF      0.046700
     64 H63        -8.3580   -3.1510   -2.5550 hc        1 3AF      0.038700
     65 H62        -6.5670   -3.0820   -2.2730 hc        1 3AF      0.038700
     66 H64        -7.3770   -1.7940   -3.2550 hc        1 3AF      0.038700
     67 H66        -9.8300   -1.5670   -1.6910 hc        1 3AF      0.045700
     68 H65        -8.8930   -0.0770   -2.0900 hc        1 3AF      0.045700
     69 H68        -8.8060    0.5340    0.3410 hc        1 3AF      0.039450
     70 H67        -9.6710   -0.9960    0.7660 hc        1 3AF      0.039450
     71 H71       -11.2300    0.9510    0.6900 hc        1 3AF      0.033700
     72 H69       -10.7800    1.2660   -1.0370 hc        1 3AF      0.033700
     73 H70       -11.6500   -0.2580   -0.5930 hc        1 3AF      0.033700
@<TRIPOS>BOND
     1    1    2 1   
     2    1   34 1   
     3    1   35 1   
     4    1   36 1   
     5    2    3 1   
     6    2   37 1   
     7    2   38 1   
     8    3    4 1   
     9    3   39 1   
    10    3   40 1   
    11    4    5 1   
    12    4    6 1   
    13    4   41 1   
    14    5   42 1   
    15    5   43 1   
    16    5   44 1   
    17    6    7 1   
    18    6   45 1   
    19    7    8 1   
    20    7    9 1   
    21    7   46 1   
    22    8   47 1   
    23    8   48 1   
    24    9   10 ar  
    25    9   12 ar  
    26   10   11 ar  
    27   10   49 1   
    28   11   14 ar  
    29   11   50 1   
    30   12   13 ar  
    31   12   51 1   
    32   13   14 ar  
    33   13   52 1   
    34   14   15 1   
    35   15   16 1   
    36   15   17 2   
    37   16   19 1   
    38   17   18 1   
    39   17   53 1   
    40   18   19 2   
    41   18   54 1   
    42   19   20 1   
    43   20   21 ar  
    44   20   23 ar  
    45   21   22 ar  
    46   21   55 1   
    47   22   25 ar  
    48   22   56 1   
    49   23   24 ar  
    50   23   57 1   
    51   24   25 ar  
    52   24   58 1   
    53   25   26 1   
    54   26   27 1   
    55   26   28 1   
    56   26   59 1   
    57   27   60 1   
    58   27   61 1   
    59   28   29 1   
    60   28   62 1   
    61   29   30 1   
    62   29   31 1   
    63   29   63 1   
    64   30   64 1   
    65   30   65 1   
    66   30   66 1   
    67   31   32 1   
    68   31   67 1   
    69   31   68 1   
    70   32   33 1   
    71   32   69 1   
    72   32   70 1   
    73   33   71 1   
    74   33   72 1   
    75   33   73 1   
@<TRIPOS>SUBSTRUCTURE
     1 3AF         1 TEMP              0 ****  ****    0 ROOT
