@<TRIPOS>MOLECULE
3AF
   77    79     1     0     0
SMALL
bcc


@<TRIPOS>ATOM
      1 C1          0.3450   -1.2270   -1.2460 c3        1 3AF     -0.106100
      2 C2          1.8270   -1.0900   -0.9890 c3        1 3AF     -0.086400
      3 C3          2.0740   -0.3540    0.3110 c3        1 3AF     -0.130400
      4 C4          3.5410    0.0270    0.5280 c3        1 3AF      0.139500
      5 C5          3.6740    0.9630    1.7170 c3        1 3AF     -0.150100
      6 N6          4.3840   -1.2350    0.7260 n4        1 3AF     -0.811000
      7 C7          5.8650   -1.0570    0.4720 c3        1 3AF      0.410000
      8 N8          6.2300   -0.9340   -1.0010 n4        1 3AF     -0.867600
      9 C9          6.6570   -2.1740    1.0900 ca        1 3AF     -0.274300
     10 C12         7.5990   -1.8480    2.0780 ca        1 3AF     -0.079500
     11 C13         8.3430   -2.8520    2.6880 ca        1 3AF     -0.097500
     12 C10         6.4800   -3.5160    0.7150 ca        1 3AF     -0.079500
     13 C11         7.2270   -4.5190    1.3250 ca        1 3AF     -0.097500
     14 C14         8.1640   -4.2030    2.3280 ca        1 3AF     -0.024500
     15 C15         8.9350   -5.2040    3.0200 cc        1 3AF      0.276200
     16 O18         8.9270   -6.5340    2.5620 os        1 3AF     -0.349800
     17 C16         9.7350   -5.0950    4.1550 cd        1 3AF     -0.172300
     18 C17        10.2510   -6.4040    4.4300 cd        1 3AF     -0.172300
     19 C19         9.7480   -7.2540    3.4490 cc        1 3AF      0.276200
     20 C20         9.9640   -8.6630    3.2410 ca        1 3AF     -0.024500
     21 C23         9.5630   -9.3340    2.0690 ca        1 3AF     -0.097500
     22 C24         9.8320  -10.6880    1.9030 ca        1 3AF     -0.079500
     23 C21        10.6270   -9.3950    4.2470 ca        1 3AF     -0.097500
     24 C22        10.8950  -10.7500    4.0840 ca        1 3AF     -0.079500
     25 C25        10.5030  -11.4050    2.9070 ca        1 3AF     -0.274300
     26 C26        10.8290  -12.8650    2.7680 c3        1 3AF      0.410000
     27 N27         9.5380  -13.6710    2.7370 n4        1 3AF     -0.867600
     28 N28        11.7360  -13.1100    1.5820 n4        1 3AF     -0.811000
     29 C29        12.4660  -14.4550    1.5970 c3        1 3AF      0.139500
     30 C30        13.6520  -14.4200    2.5460 c3        1 3AF     -0.150100
     31 C31        12.9280  -14.8140    0.1820 c3        1 3AF     -0.130400
     32 C32        11.7870  -15.1010   -0.7710 c3        1 3AF     -0.086400
     33 C33        12.3110  -15.6690   -2.0690 c3        1 3AF     -0.106100
     34 H34        -0.1350   -0.2220   -1.3450 hc        1 3AF      0.071033
     35 H35        -0.1550   -1.7780   -0.4130 hc        1 3AF      0.071033
     36 H36         0.1730   -1.7900   -2.1960 hc        1 3AF      0.071033
     37 H37         2.2980   -0.5310   -1.8410 hc        1 3AF      0.025200
     38 H38         2.2840   -2.1150   -0.9580 hc        1 3AF      0.025200
     39 H40         1.4920    0.6140    0.2970 hc        1 3AF      0.114200
     40 H39         1.6810   -0.9460    1.1800 hc        1 3AF      0.114200
     41 H41         3.9320    0.5290   -0.4050 hx        1 3AF      0.081700
     42 H43         3.0950    1.9000    1.4900 hc        1 3AF      0.096700
     43 H42         4.7320    1.2600    1.9130 hc        1 3AF      0.096700
     44 H44         3.2360    0.5180    2.6460 hc        1 3AF      0.096700
     45 H45         4.3000   -1.5200    1.7180 hn        1 3AF      0.478800
     46 H7          6.1480   -0.0530    0.9470 hx        1 3AF      0.170700
     47 H47         7.2440   -0.7310   -1.0420 hn        1 3AF      0.487800
     48 H46         6.0650   -1.8150   -1.5030 hn        1 3AF      0.487800
     49 H50         7.7620   -0.8010    2.3870 ha        1 3AF      0.151500
     50 H51         9.0820   -2.5790    3.4640 ha        1 3AF      0.184000
     51 H48         5.7470   -3.7960   -0.0580 ha        1 3AF      0.151500
     52 H49         7.0830   -5.5720    1.0290 ha        1 3AF      0.184000
     53 H52         9.9420   -4.2010    4.7450 ha        1 3AF      0.198000
     54 H53        10.9170   -6.6560    5.2580 ha        1 3AF      0.198000
     55 H56         9.0360   -8.7730    1.2780 ha        1 3AF      0.184000
     56 H57         9.5140  -11.1820    0.9710 ha        1 3AF      0.151500
     57 H54        10.9410   -8.8930    5.1810 ha        1 3AF      0.184000
     58 H55        11.4190  -11.2910    4.8900 ha        1 3AF      0.151500
     59 H26        11.4050  -13.2380    3.6870 hx        1 3AF      0.170700
     60 H59         8.9230  -13.3640    1.9720 hn        1 3AF      0.487800
     61 H58         9.0490  -13.4870    3.6300 hn        1 3AF      0.487800
     62 H60        12.4510  -12.3610    1.6130 hn        1 3AF      0.478800
     63 H61        11.7150  -15.2230    1.9440 hx        1 3AF      0.081700
     64 H63        14.1070  -15.4480    2.5740 hc        1 3AF      0.096700
     65 H62        14.4450  -13.7140    2.1940 hc        1 3AF      0.096700
     66 H64        13.3570  -14.1550    3.5900 hc        1 3AF      0.096700
     67 H66        13.6000  -14.0170   -0.2350 hc        1 3AF      0.114200
     68 H65        13.5620  -15.7440    0.2800 hc        1 3AF      0.114200
     69 H68        11.0760  -15.8360   -0.3080 hc        1 3AF      0.025200
     70 H67        11.2110  -14.1630   -0.9940 hc        1 3AF      0.025200
     71 H71        12.8390  -16.6380   -1.8930 hc        1 3AF      0.071033
     72 H69        13.0250  -14.9600   -2.5550 hc        1 3AF      0.071033
     73 H70        11.4630  -15.8570   -2.7730 hc        1 3AF      0.071033
     74 H621        3.9910   -1.9950    0.1540 hn        1 3AF      0.478800
     75 H83         5.7230   -0.1710   -1.4680 hn        1 3AF      0.487800
     76 H273        9.7080  -14.6820    2.6560 hn        1 3AF      0.487800
     77 H282       11.2290  -13.0130    0.6920 hn        1 3AF      0.478800
@<TRIPOS>BOND
     1    1    2 1   
     2    1   34 1   
     3    1   35 1   
     4    1   36 1   
     5    2    3 1   
     6    2   37 1   
     7    2   38 1   
     8    3    4 1   
     9    3   39 1   
    10    3   40 1   
    11    4    5 1   
    12    4    6 1   
    13    4   41 1   
    14    5   42 1   
    15    5   43 1   
    16    5   44 1   
    17    6    7 1   
    18    6   45 1   
    19    6   74 1   
    20    7    8 1   
    21    7    9 1   
    22    7   46 1   
    23    8   47 1   
    24    8   48 1   
    25    8   75 1   
    26    9   10 ar  
    27    9   12 ar  
    28   10   11 ar  
    29   10   49 1   
    30   11   14 ar  
    31   11   50 1   
    32   12   13 ar  
    33   12   51 1   
    34   13   14 ar  
    35   13   52 1   
    36   14   15 1   
    37   15   16 1   
    38   15   17 2   
    39   16   19 1   
    40   17   18 1   
    41   17   53 1   
    42   18   19 2   
    43   18   54 1   
    44   19   20 1   
    45   20   21 ar  
    46   20   23 ar  
    47   21   22 ar  
    48   21   55 1   
    49   22   25 ar  
    50   22   56 1   
    51   23   24 ar  
    52   23   57 1   
    53   24   25 ar  
    54   24   58 1   
    55   25   26 1   
    56   26   27 1   
    57   26   28 1   
    58   26   59 1   
    59   27   60 1   
    60   27   61 1   
    61   27   76 1   
    62   28   29 1   
    63   28   62 1   
    64   28   77 1   
    65   29   30 1   
    66   29   31 1   
    67   29   63 1   
    68   30   64 1   
    69   30   65 1   
    70   30   66 1   
    71   31   32 1   
    72   31   67 1   
    73   31   68 1   
    74   32   33 1   
    75   32   69 1   
    76   32   70 1   
    77   33   71 1   
    78   33   72 1   
    79   33   73 1   
@<TRIPOS>SUBSTRUCTURE
     1 3AF         1 TEMP              0 ****  ****    0 ROOT
