@<TRIPOS>MOLECULE
3AF
   73    67     1     0     0
SMALL
bcc


@<TRIPOS>ATOM
      1 C1         -9.1230    1.6130   -7.7040 c3        1 3AF     -0.211000
      2 C2         -7.6330    1.1860   -7.6910 c3        1 3AF     -0.155000
      3 C3         -6.9090    1.8060   -6.4160 c3        1 3AF     -0.183000
      4 C4         -5.4090    1.4160   -6.4370 c3        1 3AF     -0.015000
      5 C5         -4.6200    2.5060   -7.1110 c3        1 3AF     -0.206000
      6 N6         -4.9420    1.2460   -5.1020 n3        1 3AF     -0.292000
      7 C7         -4.1460    0.0370   -5.0090 c3        1 3AF      0.085000
      8 N8         -4.9300   -1.0000   -4.5110 n3        1 3AF     -0.371000
      9 C9         -2.9610    0.2790   -4.0660 c2        1 3AF     -0.101000
     10 C12        -1.7010   -0.1880   -4.4040 c1        1 3AF     -0.112000
     11 C13        -0.6220   -0.0230   -3.5040 c1        1 3AF     -0.111000
     12 C10        -3.1680    0.9200   -2.8190 c2        1 3AF     -0.129000
     13 C11        -2.1010    1.0830   -1.9310 c1        1 3AF     -0.103000
     14 C14        -0.8290    0.6130   -2.2710 c1        1 3AF     -0.016000
     15 C15         0.2570    0.7700   -1.3560 c1        1 3AF      0.007000
     16 O18         0.5270   -0.0420   -0.2690 os        1 3AF     -0.100000
     17 C16         1.1700    1.8240   -1.3440 c1        1 3AF     -0.178000
     18 C17         2.0000    1.6590   -0.2500 c1        1 3AF     -0.179000
     19 C19         1.6040    0.5040    0.4180 c2        1 3AF      0.007000
     20 C20         2.1930   -0.0210    1.5380 c1        1 3AF     -0.016000
     21 C23         3.4710   -0.5890    1.4570 c1        1 3AF     -0.119500
     22 C24         4.0280   -1.2130    2.5690 c1        1 3AF     -0.119500
     23 C21         1.4810   -0.0810    2.7290 c1        1 3AF     -0.104000
     24 C22         2.0410   -0.7070    3.8450 c1        1 3AF     -0.112000
     25 C25         3.3170   -1.2740    3.7620 c1        1 3AF     -0.102000
     26 C26         3.9020   -2.0280    4.9650 c3        1 3AF      0.087000
     27 N27         4.7140   -3.0720    4.5110 n3        1 3AF     -0.371000
     28 N28         4.6780   -1.1330    5.7520 n3        1 3AF     -0.293000
     29 C29         4.3350   -1.2920    7.1390 c3        1 3AF     -0.012000
     30 C30         3.9300    0.0070    7.6940 c3        1 3AF     -0.207000
     31 C31         5.5560   -1.8240    7.9170 c3        1 3AF     -0.191000
     32 C32         6.7780   -0.8340    7.7260 c3        1 3AF     -0.157000
     33 C33         8.1060   -1.6360    7.7530 c3        1 3AF     -0.210000
     34 H34        -9.1910    2.5450   -7.4730 hc        1 3AF      0.071333
     35 H35        -9.6270    1.0730   -7.0480 hc        1 3AF      0.071333
     36 H36        -9.4950    1.4710   -8.5980 hc        1 3AF      0.071333
     37 H37        -7.1960    1.5090   -8.5010 hc        1 3AF      0.080000
     38 H38        -7.5750    0.2180   -7.6560 hc        1 3AF      0.080000
     39 H40        -7.3260    1.4580   -5.6000 hc        1 3AF      0.081500
     40 H39        -6.9950    2.7930   -6.4360 hc        1 3AF      0.081500
     41 H41        -5.2960    0.5710   -6.9360 h1        1 3AF      0.099000
     42 H43        -3.7430    2.1630   -7.3690 hc        1 3AF      0.076333
     43 H42        -5.0900    2.8020   -7.8960 hc        1 3AF      0.076333
     44 H44        -4.5070    3.2660   -6.4870 hc        1 3AF      0.076333
     45 H45        -5.6560    1.1840   -4.5340 hn        1 3AF      0.155000
     46 H7         -3.8120   -0.2040   -5.8940 h2        1 3AF      0.113000
     47 H47        -4.3960   -1.7250   -4.3230 hn        1 3AF      0.147000
     48 H46        -5.5510   -1.2340   -5.1310 hn        1 3AF      0.147000
     49 H50        -1.5530   -0.6450   -5.2940 ha        1 3AF      0.139000
     50 H51         0.2580   -0.3480   -3.7390 ha        1 3AF      0.137000
     51 H48        -4.0480    1.2460   -2.5820 ha        1 3AF      0.130000
     52 H49        -2.2510    1.5450   -1.0330 ha        1 3AF      0.147000
     53 H52         1.2140    2.5370   -1.9810 DU        1 3AF      0.162000
     54 H53         2.7340    2.2490    0.0070 DU        1 3AF      0.162000
     55 H56         3.9580   -0.5470    0.6390 ha        1 3AF      0.133000
     56 H57         4.9360   -1.6160    2.5090 ha        1 3AF      0.133000
     57 H54         0.5710    0.3220    2.7870 ha        1 3AF      0.147000
     58 H55         1.5460   -0.7490    4.6730 ha        1 3AF      0.139000
     59 H26         3.1680   -2.3960    5.5110 h2        1 3AF      0.114000
     60 H59         5.2710   -3.3420    5.1870 hn        1 3AF      0.147000
     61 H58         4.2000   -3.7600    4.2550 hn        1 3AF      0.147000
     62 H60         5.5910   -1.3190    5.6310 hn        1 3AF      0.157000
     63 H61         3.5990   -1.9230    7.2210 h1        1 3AF      0.096000
     64 H63         4.7110    0.4690    8.0370 hc        1 3AF      0.076667
     65 H62         3.5120    0.5500    6.9850 hc        1 3AF      0.076667
     66 H64         3.2770   -0.1350    8.4350 hc        1 3AF      0.076667
     67 H66         5.3300   -1.8870    8.8730 hc        1 3AF      0.091000
     68 H65         5.7950   -2.6950    7.5850 hc        1 3AF      0.091000
     69 H68         6.6930   -0.3720    6.8590 hc        1 3AF      0.073500
     70 H67         6.7790   -0.1760    8.4480 hc        1 3AF      0.073500
     71 H71         8.8770   -1.0090    7.6490 hc        1 3AF      0.072000
     72 H69         8.1850   -2.1190    8.6210 hc        1 3AF      0.072000
     73 H70         8.1100   -2.2830    7.0170 hc        1 3AF      0.072000
@<TRIPOS>BOND
     1    1    2 1   
     2    1   34 1   
     3    1   35 1   
     4    1   36 1   
     5    2    3 1   
     6    2   37 1   
     7    2   38 1   
     8    3    4 1   
     9    3   39 1   
    10    3   40 1   
    11    4    5 1   
    12    4    6 1   
    13    4   41 1   
    14    5   42 1   
    15    5   43 1   
    16    5   44 1   
    17    6    7 1   
    18    6   45 1   
    19    7    8 1   
    20    7    9 1   
    21    7   46 1   
    22    8   47 1   
    23    8   48 1   
    24    9   10 1   
    25    9   12 1   
    26   10   49 1   
    27   11   14 1   
    28   11   50 1   
    29   12   13 1   
    30   12   51 1   
    31   13   52 1   
    32   15   16 1   
    33   15   17 1   
    34   16   19 1   
    35   17   18 1   
    36   18   19 1   
    37   19   20 1   
    38   20   23 1   
    39   21   22 1   
    40   21   55 1   
    41   22   56 1   
    42   23   57 1   
    43   24   25 1   
    44   24   58 1   
    45   25   26 1   
    46   26   27 1   
    47   26   28 1   
    48   26   59 1   
    49   27   60 1   
    50   27   61 1   
    51   28   29 1   
    52   28   62 1   
    53   29   30 1   
    54   29   31 1   
    55   29   63 1   
    56   30   64 1   
    57   30   65 1   
    58   30   66 1   
    59   31   32 1   
    60   31   67 1   
    61   31   68 1   
    62   32   33 1   
    63   32   69 1   
    64   32   70 1   
    65   33   71 1   
    66   33   72 1   
    67   33   73 1   
@<TRIPOS>SUBSTRUCTURE
     1 3AF         1 TEMP              0 ****  ****    0 ROOT
