@<TRIPOS>MOLECULE
3AG
   37    35     1     0     0
SMALL
bcc


@<TRIPOS>ATOM
      1 C1         -1.8550   -0.7670    4.5280 c3        1 3AG     -0.162000
      2 C2         -0.3640   -1.0200    4.5730 c2        1 3AG     -0.187000
      3 C3          0.3510   -1.0980    5.9040 c3        1 3AG     -0.162000
      4 C4          0.3270   -1.1760    3.4270 c1        1 3AG     -0.110000
      5 O1          1.0580    1.7220   -5.3470 o         1 3AG     -0.933500
      6 C5         -0.3870   -1.0980    2.0960 c2        1 3AG     -0.151000
      7 C6          0.5620   -1.5020    0.9890 c3        1 3AG     -0.053000
      8 N1         -0.1660   -1.1830   -0.5360 n3        1 3AG     -0.261000
      9 C7          0.8740   -0.1580   -1.4450 c3        1 3AG     -0.111000
     10 C8          0.0530    0.6520   -2.4250 c3        1 3AG      0.097000
     11 C9         -0.3610   -2.6680   -1.3820 c3        1 3AG     -0.158000
     12 O2          0.7920    1.7780   -2.8380 os        1 3AG     -0.728000
     13 P1          0.4090    2.4690   -4.2070 p5        1 3AG      2.052000
     14 O3          0.9150    3.9660   -4.2020 os        1 3AG     -1.268000
     15 O4         -1.0910    2.4460   -4.3810 o         1 3AG     -0.933500
     16 P2          1.0200    4.8600   -5.5010 p5        1 3AG      1.693500
     17 O5          1.0940    6.3150   -5.1060 o         1 3AG     -0.958500
     18 O6          2.2630    4.4840   -6.2720 o         1 3AG     -0.958500
     19 O7         -0.1970    4.6350   -6.3660 o         1 3AG     -0.958500
     20 HC11       -2.1760   -0.5450    5.4270 hc        1 3AG      0.065667
     21 HC12       -2.0420   -0.0200    3.9210 hc        1 3AG      0.065667
     22 HC13       -2.3130   -1.5720    4.2070 hc        1 3AG      0.065667
     23 HC31       -0.2040   -1.5910    6.5440 hc        1 3AG      0.065667
     24 HC32        0.5120   -0.1920    6.2420 hc        1 3AG      0.065667
     25 HC33        1.2070   -1.5600    5.7890 hc        1 3AG      0.065667
     26 HC4         1.2890   -1.3390    3.4550 ha        1 3AG      0.114000
     27 HC51       -1.1560   -1.7030    2.1020 ha        1 3AG      0.100500
     28 HC52       -0.6940   -0.1820    1.9430 ha        1 3AG      0.100500
     29 HC61        0.7600   -2.4580    1.0620 h1        1 3AG      0.045500
     30 HC62        1.3920   -0.9900    1.0680 h1        1 3AG      0.045500
     31 HC71        1.3470    0.4470   -0.8390 h1        1 3AG      0.062000
     32 HC72        1.5220   -0.7020   -1.9350 h1        1 3AG      0.062000
     33 HC81       -0.7750    0.9450   -1.9930 h1        1 3AG      0.029500
     34 HC82       -0.1630    0.0990   -3.2050 h1        1 3AG      0.029500
     35 HC91        0.5050   -2.9570   -1.7380 h1        1 3AG      0.089333
     36 HC92       -0.9930   -2.5430   -2.1200 h1        1 3AG      0.089333
     37 HC93       -0.7060   -3.3500   -0.7680 h1        1 3AG      0.089333
@<TRIPOS>BOND
     1    1    2 1   
     2    1   20 1   
     3    1   21 1   
     4    1   22 1   
     5    2    3 1   
     6    2    4 1   
     7    3   23 1   
     8    3   24 1   
     9    3   25 1   
    10    4   26 1   
    11    5   13 1   
    12    6    7 1   
    13    6   27 1   
    14    6   28 1   
    15    7    8 1   
    16    7   29 1   
    17    7   30 1   
    18    8    9 1   
    19    8   11 1   
    20    9   10 1   
    21    9   31 1   
    22    9   32 1   
    23   10   12 1   
    24   10   33 1   
    25   10   34 1   
    26   11   35 1   
    27   11   36 1   
    28   11   37 1   
    29   12   13 1   
    30   13   14 1   
    31   13   15 1   
    32   14   16 1   
    33   16   17 1   
    34   16   18 1   
    35   16   19 1   
@<TRIPOS>SUBSTRUCTURE
     1 3AG         1 TEMP              0 ****  ****    0 ROOT
