@<TRIPOS>MOLECULE
3AH
   27    28     1     0     0
SMALL
bcc


@<TRIPOS>ATOM
      1 N           1.7920   -0.4600    2.3680 n3        1 3AH     -0.898800
      2 CA          0.6360    0.3160    2.7990 c3        1 3AH      0.011500
      3 CB         -0.7030   -0.3370    2.4510 c3        1 3AH     -0.100700
      4 CG         -0.9590   -0.4310    0.9960 cc        1 3AH      0.341600
      5 CD2        -0.0970   -0.0730   -0.0500 cd        1 3AH     -0.184600
      6 ND1        -2.1810   -0.9090    0.4610 nc        1 3AH     -0.648000
      7 CE1        -2.0710   -0.8400   -0.8670 cd        1 3AH      0.378400
      8 NE2        -0.8010   -0.3330   -1.2480 na        1 3AH     -0.271700
      9 C           0.6200    0.6570    4.3300 c         1 3AH      0.890600
     10 O           1.6260    0.3240    5.0190 o         1 3AH     -0.837800
     11 N1         -1.2110   -0.1060   -3.6860 na        1 3AH     -0.178400
     12 N2         -0.5020    0.1350   -4.7970 nc        1 3AH     -0.587800
     13 C3          0.7840    0.3970   -4.3510 cd        1 3AH      0.721900
     14 N4          0.9090    0.2770   -2.9300 nd        1 3AH     -0.716000
     15 C5         -0.3540   -0.0880   -2.5390 cc        1 3AH      0.557000
     16 OXT        -0.3890    1.2670    4.7780 o         1 3AH     -0.837800
     17 H           1.6740   -1.4100    2.6710 hn        1 3AH      0.335300
     18 H2          2.5910   -0.1020    2.8670 hn        1 3AH      0.335300
     19 HA          0.6990    1.3060    2.2600 h1        1 3AH      0.042700
     20 HB2        -0.7610   -1.3640    2.9020 hc        1 3AH      0.075200
     21 HB3        -1.5080    0.2860    2.9370 hc        1 3AH      0.075200
     22 HD2         0.9260    0.3090   -0.0450 h4        1 3AH      0.222000
     23 HE1        -2.8350   -1.1320   -1.5920 h5        1 3AH      0.044100
     24 HN31        1.6220    1.1830   -6.0020 hn        1 3AH      0.395300
     25 HN32        2.6460    1.0730   -4.6990 hn        1 3AH      0.395300
     26 N3A         1.8790    0.6610   -5.1900 nh        1 3AH     -0.875500
     27 HN1        -2.0830   -0.5750   -3.7590 hn        1 3AH      0.314700
@<TRIPOS>BOND
     1    1    2 1   
     2    1   17 1   
     3    1   18 1   
     4    2    3 1   
     5    2    9 1   
     6    2   19 1   
     7    3    4 1   
     8    3   20 1   
     9    3   21 1   
    10    4    5 2   
    11    4    6 1   
    12    5    8 1   
    13    5   22 1   
    14    6    7 2   
    15    7    8 1   
    16    7   23 1   
    17    8   15 1   
    18    9   10 1   
    19    9   16 1   
    20   11   12 1   
    21   11   15 1   
    22   11   27 1   
    23   12   13 2   
    24   13   14 1   
    25   13   26 1   
    26   14   15 2   
    27   24   26 1   
    28   25   26 1   
@<TRIPOS>SUBSTRUCTURE
     1 3AH         1 TEMP              0 ****  ****    0 ROOT
