@<TRIPOS>MOLECULE
3AI
   69    69     1     0     0
SMALL
bcc


@<TRIPOS>ATOM
      1 O          -0.0920   -1.2180    1.5860 o         1 3AI     -0.633100
      2 C1          0.0180   -1.1100    0.3450 c         1 3AI      0.658100
      3 N1         -2.2210   -0.1650    0.0090 n3        1 3AI     -0.824200
      4 CE         -0.9220   -5.5800    0.5670 c3        1 3AI     -0.036000
      5 CA1        -1.2460   -1.0790   -0.5550 c3        1 3AI      0.113500
      6 CB1        -1.6920   -2.5370   -0.7690 c3        1 3AI     -0.107400
      7 CG1        -2.2680   -3.1700    0.4700 c3        1 3AI     -0.023300
      8 C          -3.4720   -0.1040   -0.7120 c3        1 3AI      0.122800
      9 N          -3.8410    2.2920    0.0300 n3        1 3AI     -0.897800
     10 CA         -4.4310    0.9810   -0.1400 c3        1 3AI      0.172500
     11 CB         -5.6620    1.0130   -1.0680 c3        1 3AI     -0.032100
     12 CG         -6.8350    1.6610   -0.4230 ca        1 3AI     -0.069300
     13 CZ         -9.0640    2.8720    0.7670 ca        1 3AI     -0.136000
     14 CD1        -6.9370    3.0570   -0.3680 ca        1 3AI     -0.117500
     15 CD2        -7.8590    0.8790    0.1240 ca        1 3AI     -0.117500
     16 CE1        -8.0460    3.6570    0.2260 ca        1 3AI     -0.135000
     17 CE2        -8.9680    1.4820    0.7150 ca        1 3AI     -0.135000
     18 N2          1.2270   -1.1070   -0.3000 n         1 3AI     -0.534900
     19 CA2         2.4880   -1.0170    0.4070 c3        1 3AI      0.009700
     20 C2          3.4130    0.0670   -0.2210 c         1 3AI      0.630100
     21 O1          3.2070    0.4680   -1.3880 o         1 3AI     -0.642100
     22 CB2         3.2770   -2.3290    0.3890 c3        1 3AI     -0.118100
     23 N3          4.3950    0.5720    0.6050 n         1 3AI     -0.482900
     24 CA3         5.6830    0.9730    0.0450 c3        1 3AI     -0.065300
     25 C3          6.7650   -0.1510    0.2610 c         1 3AI      0.904600
     26 O2          6.4820   -1.1050    1.0440 o         1 3AI     -0.832800
     27 CB3         6.1580    2.3130    0.6480 c3        1 3AI     -0.035700
     28 CG2         7.2320    2.9020   -0.2560 c3        1 3AI     -0.091400
     29 CG3         6.6590    2.1200    2.0620 c3        1 3AI     -0.087100
     30 CD3         7.6900    4.2660    0.1880 c3        1 3AI     -0.083100
     31 OXT         7.8420   -0.0450   -0.3810 o         1 3AI     -0.832800
     32 HN1        -2.3680   -0.3650    0.9830 hn        1 3AI      0.380800
     33 HE         -0.5080   -5.2780    1.5550 h1        1 3AI      0.065033
     34 HEA        -1.0400   -6.6880    0.5410 h1        1 3AI      0.065033
     35 HEB        -0.2050   -5.2700   -0.2250 h1        1 3AI      0.065033
     36 HA1        -0.9810   -0.6630   -1.5750 h1        1 3AI      0.069700
     37 HB1        -2.4500   -2.5660   -1.5960 hc        1 3AI      0.057200
     38 HB1A       -0.7990   -3.1230   -1.1150 hc        1 3AI      0.057200
     39 HG1        -3.2840   -2.7550    0.6890 h1        1 3AI      0.086200
     40 HG1A       -1.6090   -2.9550    1.3520 h1        1 3AI      0.086200
     41 H          -3.2440    0.1430   -1.7880 h1        1 3AI      0.031200
     42 HA         -4.0250   -1.0890   -0.7040 h1        1 3AI      0.031200
     43 HAA        -4.7760    0.6370    0.8810 h1        1 3AI      0.060700
     44 HB         -5.4080    1.5530   -2.0190 hc        1 3AI      0.048200
     45 HBA        -5.9220   -0.0440   -1.3430 hc        1 3AI      0.048200
     46 HZ         -9.9380    3.3470    1.2340 ha        1 3AI      0.124000
     47 HD1        -6.1280    3.6780   -0.7810 ha        1 3AI      0.135500
     48 HD2        -7.7880   -0.2180    0.0880 ha        1 3AI      0.135500
     49 HE1        -8.1150    4.7540    0.2700 ha        1 3AI      0.126000
     50 HE2        -9.7670    0.8590    1.1430 ha        1 3AI      0.126000
     51 HN2         1.2650   -0.8500   -1.2630 hn        1 3AI      0.327500
     52 HA2         2.2650   -0.7460    1.4840 h1        1 3AI      0.089700
     53 HB2         3.4330   -2.6870   -0.6560 hc        1 3AI      0.059700
     54 HB2A        4.2850   -2.1690    0.8570 hc        1 3AI      0.059700
     55 HB2B        2.7300   -3.1140    0.9620 hc        1 3AI      0.059700
     56 HN3         4.5320    0.0480    1.4540 hn        1 3AI      0.303500
     57 HA3         5.5610    1.1110   -1.0680 h1        1 3AI      0.072700
     58 HB3         5.2920    3.0340    0.6710 hc        1 3AI      0.025700
     59 HG2         8.1000    2.1860   -0.2960 hc        1 3AI      0.063700
     60 HG2A        6.8220    2.9770   -1.2990 hc        1 3AI      0.063700
     61 HG3         6.9870    3.0930    2.5010 hc        1 3AI      0.030367
     62 HG3A        5.8510    1.7000    2.7090 hc        1 3AI      0.030367
     63 HG3B        7.5210    1.4070    2.0700 hc        1 3AI      0.030367
     64 HD3         6.8200    4.9480    0.3490 hc        1 3AI      0.016700
     65 HD3A        8.2660    4.2030    1.1440 hc        1 3AI      0.016700
     66 HD3B        8.3550    4.7200   -0.5870 hc        1 3AI      0.016700
     67 HN         -3.1500    2.2680    0.7550 hn        1 3AI      0.355300
     68 SD         -2.5220   -4.9110    0.3000 ss        1 3AI     -0.319200
     69 HNA        -3.4020    2.5900   -0.8190 hn        1 3AI      0.355300
@<TRIPOS>BOND
     1    1    2 2   
     2    2    5 1   
     3    2   18 1   
     4    3    5 1   
     5    3    8 1   
     6    3   32 1   
     7    4   33 1   
     8    4   34 1   
     9    4   35 1   
    10    4   68 1   
    11    5    6 1   
    12    5   36 1   
    13    6    7 1   
    14    6   37 1   
    15    6   38 1   
    16    7   39 1   
    17    7   40 1   
    18    7   68 1   
    19    8   10 1   
    20    8   41 1   
    21    8   42 1   
    22    9   10 1   
    23    9   67 1   
    24    9   69 1   
    25   10   11 1   
    26   10   43 1   
    27   11   12 1   
    28   11   44 1   
    29   11   45 1   
    30   12   14 ar  
    31   12   15 ar  
    32   13   16 ar  
    33   13   17 ar  
    34   13   46 1   
    35   14   16 ar  
    36   14   47 1   
    37   15   17 ar  
    38   15   48 1   
    39   16   49 1   
    40   17   50 1   
    41   18   19 1   
    42   18   51 1   
    43   19   20 1   
    44   19   22 1   
    45   19   52 1   
    46   20   21 2   
    47   20   23 1   
    48   22   53 1   
    49   22   54 1   
    50   22   55 1   
    51   23   24 1   
    52   23   56 1   
    53   24   25 1   
    54   24   27 1   
    55   24   57 1   
    56   25   26 1   
    57   25   31 1   
    58   27   28 1   
    59   27   29 1   
    60   27   58 1   
    61   28   30 1   
    62   28   59 1   
    63   28   60 1   
    64   29   61 1   
    65   29   62 1   
    66   29   63 1   
    67   30   64 1   
    68   30   65 1   
    69   30   66 1   
@<TRIPOS>SUBSTRUCTURE
     1 3AI         1 TEMP              0 ****  ****    0 ROOT
