@<TRIPOS>MOLECULE
3AI
   69    65     1     0     0
SMALL
bcc


@<TRIPOS>ATOM
      1 O          -0.8720    2.4770   -1.4550 o         1 3AI     -0.407000
      2 C1          0.1810    1.8430   -1.3100 c1        1 3AI      0.260000
      3 N1         -0.0030    1.8980    1.0710 n3        1 3AI     -0.289000
      4 SD          4.1520    4.4050   -0.1270 ss        1 3AI      0.053000
      5 CE          5.8880    3.9930   -0.2650 c3        1 3AI     -0.341000
      6 CA1         0.9290    1.9320   -0.0320 c3        1 3AI     -0.038000
      7 CB1         1.7310    3.2690   -0.0000 c3        1 3AI     -0.150000
      8 CG1         3.2380    2.9610    0.1200 c3        1 3AI     -0.267000
      9 C           0.5600    1.0970    2.1680 c3        1 3AI     -0.119000
     10 N          -1.1950   -0.1100    3.3130 n3        1 3AI     -0.335000
     11 CA         -0.3900    1.0970    3.3430 c3        1 3AI     -0.040000
     12 CB          0.4010    1.1420    4.6110 c3        1 3AI     -0.118000
     13 CG         -0.5690    1.3810    5.8400 c2        1 3AI     -0.058000
     14 CZ         -2.0990    1.8380    8.1220 c1        1 3AI     -0.137500
     15 CD1        -0.9460    0.3190    6.6490 c2        1 3AI     -0.100000
     16 CD2        -0.9590    2.6820    6.1720 c1        1 3AI     -0.133000
     17 CE1        -1.7180    0.5550    7.7990 c1        1 3AI     -0.133000
     18 CE2        -1.7190    2.9090    7.3060 c1        1 3AI     -0.137500
     19 N2          0.6950    1.0530   -2.3940 n2        1 3AI     -0.340000
     20 CA2        -0.1910    0.6290   -3.4530 c3        1 3AI     -0.014000
     21 C2          0.1640   -0.7790   -3.8760 c1        1 3AI      0.269000
     22 O1          1.3370   -1.0690   -4.1260 o         1 3AI     -0.429000
     23 CB2        -0.0470    1.5380   -4.6130 c3        1 3AI     -0.222000
     24 N3         -0.8980   -1.7730   -4.0900 n2        1 3AI     -0.311000
     25 CA3        -0.5690   -3.1720   -4.1390 c3        1 3AI     -0.075000
     26 C3         -0.2730   -3.5540   -5.5220 c2        1 3AI      0.330000
     27 O2         -0.8850   -2.9830   -6.4870 o         1 3AI     -0.562000
     28 CB3        -1.7530   -3.9990   -3.6210 c3        1 3AI     -0.090000
     29 CG2        -1.2500   -5.1010   -2.7550 c3        1 3AI     -0.164000
     30 CG3        -2.5160   -4.5910   -4.7930 c3        1 3AI     -0.203000
     31 CD3        -2.2220   -5.3170   -1.5910 c3        1 3AI     -0.204000
     32 OXT         0.5110   -4.5020   -5.7530 o         1 3AI     -0.562000
     33 HN1        -0.8070    1.5160    0.7860 hn        1 3AI      0.166000
     34 HE          6.0600    3.5850   -1.1530 h1        1 3AI      0.101333
     35 HEA         6.4180    4.7910   -0.1710 h1        1 3AI      0.101333
     36 HEB         6.1350    3.3410    0.4560 h1        1 3AI      0.101333
     37 HA1         1.5640    1.1570    0.0420 h1        1 3AI      0.114000
     38 HB1         1.5630    3.7750   -0.8400 hc        1 3AI      0.100000
     39 HB1A        1.4450    3.8050    0.7680 hc        1 3AI      0.100000
     40 HG1         3.4230    2.6120    0.9980 h1        1 3AI      0.118500
     41 HG1A        3.4850    2.3140   -0.5390 h1        1 3AI      0.118500
     42 H           1.4090    1.4760    2.4420 h1        1 3AI      0.084000
     43 HA          0.6920    0.2060    1.8730 h1        1 3AI      0.084000
     44 HN         -0.7870   -0.7460    2.7510 hn        1 3AI      0.156000
     45 HNA        -2.0300    0.0860    2.9970 hn        1 3AI      0.156000
     46 HAA        -0.9690    1.8770    3.2940 h1        1 3AI      0.101000
     47 HB          1.0470    1.8730    4.5640 hc        1 3AI      0.090000
     48 HBA         0.8760    0.2960    4.7270 hc        1 3AI      0.090000
     49 HZ         -2.6570    2.0080    8.9530 ha        1 3AI      0.122000
     50 HD1        -0.6550   -0.5850    6.4330 ha        1 3AI      0.145000
     51 HD2        -0.6560    3.4860    5.5770 ha        1 3AI      0.125000
     52 HE1        -1.9940   -0.2210    8.3920 ha        1 3AI      0.128000
     53 HE2        -1.9990    3.8520    7.5450 ha        1 3AI      0.122000
     54 HN2         1.6170    0.8980   -2.4650 hn        1 3AI      0.239000
     55 HA2        -1.1240    0.6510   -3.1300 h1        1 3AI      0.131000
     56 HB2         0.8420    1.4370   -4.9940 hc        1 3AI      0.089333
     57 HB2A       -0.7040    1.3180   -5.2750 hc        1 3AI      0.089333
     58 HB2B       -0.1710    2.4360   -4.3300 hc        1 3AI      0.089333
     59 HN3        -1.7800   -1.4890   -4.2840 hn        1 3AI      0.244000
     60 HA3         0.2360   -3.3460   -3.5660 h1        1 3AI      0.109000
     61 HB3        -2.3260   -3.4450   -3.1210 hc        1 3AI      0.082000
     62 HG2        -0.3530   -4.8610   -2.4000 hc        1 3AI      0.082000
     63 HG2A       -1.1810   -5.9320   -3.2850 hc        1 3AI      0.082000
     64 HG3        -2.0620   -5.4160   -5.0990 hc        1 3AI      0.075333
     65 HG3A       -2.5470   -3.9440   -5.5270 hc        1 3AI      0.075333
     66 HG3B       -3.4260   -4.8050   -4.5090 hc        1 3AI      0.075333
     67 HD3        -1.7790   -5.8370   -0.8850 hc        1 3AI      0.058667
     68 HD3A       -3.0180   -5.8110   -1.9130 hc        1 3AI      0.058667
     69 HD3B       -2.5040   -4.4240   -1.2210 hc        1 3AI      0.058667
@<TRIPOS>BOND
     1    1    2 1   
     2    2    6 1   
     3    3    6 1   
     4    3    9 1   
     5    3   33 1   
     6    4    5 1   
     7    4    8 1   
     8    5   34 1   
     9    5   35 1   
    10    5   36 1   
    11    6    7 1   
    12    6   37 1   
    13    7    8 1   
    14    7   38 1   
    15    7   39 1   
    16    8   40 1   
    17    8   41 1   
    18    9   11 1   
    19    9   42 1   
    20    9   43 1   
    21   10   11 1   
    22   10   44 1   
    23   10   45 1   
    24   11   12 1   
    25   11   46 1   
    26   12   13 1   
    27   12   47 1   
    28   12   48 1   
    29   13   15 1   
    30   13   16 1   
    31   14   18 1   
    32   14   49 1   
    33   15   17 1   
    34   15   50 1   
    35   16   51 1   
    36   17   52 1   
    37   18   53 1   
    38   19   20 1   
    39   19   54 1   
    40   20   21 1   
    41   20   23 1   
    42   20   55 1   
    43   21   22 1   
    44   23   56 1   
    45   23   57 1   
    46   23   58 1   
    47   24   25 1   
    48   24   59 1   
    49   25   26 1   
    50   25   28 1   
    51   25   60 1   
    52   26   27 1   
    53   26   32 1   
    54   28   29 1   
    55   28   30 1   
    56   28   61 1   
    57   29   31 1   
    58   29   62 1   
    59   29   63 1   
    60   30   64 1   
    61   30   65 1   
    62   30   66 1   
    63   31   67 1   
    64   31   68 1   
    65   31   69 1   
@<TRIPOS>SUBSTRUCTURE
     1 3AI         1 TEMP              0 ****  ****    0 ROOT
