@<TRIPOS>MOLECULE
3AJ
   86    89     1     0     0
SMALL
bcc


@<TRIPOS>ATOM
      1 N32        -0.8000    2.1640    0.4450 n1        1 3AJ     -0.367800
      2 C29        -0.3460    1.0940    0.4360 c1        1 3AJ      0.254700
      3 C28         0.2040   -0.2280    0.4240 cx        1 3AJ     -0.071900
      4 C31         1.7120   -0.3800    0.4850 cx        1 3AJ     -0.102900
      5 C30         0.8860   -0.7330    1.6800 cx        1 3AJ     -0.102900
      6 C27        -0.5590   -1.2060   -0.4380 c3        1 3AJ      0.166400
      7 O25        -1.8540   -1.3740    0.1370 os        1 3AJ     -0.423600
      8 C19        -2.5480   -2.5270   -0.3400 c3        1 3AJ      0.075100
      9 C18        -3.9090   -2.4710    0.3790 c3        1 3AJ      0.155100
     10 O24        -3.7310   -2.6240    1.7770 oh        1 3AJ     -0.598800
     11 C17        -4.8050   -3.6150   -0.0830 c3        1 3AJ     -0.040200
     12 C20        -2.6980   -2.5220   -1.8700 c3        1 3AJ      0.159300
     13 O23        -2.9820   -1.2250   -2.3650 oh        1 3AJ     -0.582800
     14 C21        -3.7200   -3.5310   -2.3250 ce        1 3AJ     -0.116200
     15 C22        -3.4660   -4.3270   -3.3710 c2        1 3AJ     -0.178000
     16 C16        -4.9680   -3.5940   -1.5650 ce        1 3AJ     -0.099200
     17 C15        -6.1960   -3.6570   -2.1200 cf        1 3AJ     -0.098000
     18 C14        -6.4650   -3.6190   -3.5380 cf        1 3AJ     -0.162000
     19 C4         -7.5950   -4.0350   -4.1360 c2        1 3AJ     -0.067400
     20 C3         -8.7380   -4.7010   -3.4410 c3        1 3AJ     -0.046200
     21 C2        -10.1000   -4.1710   -3.8570 c3        1 3AJ     -0.073400
     22 C5         -7.8120   -3.9630   -5.6050 c3        1 3AJ     -0.039500
     23 C7         -6.7730   -3.3360   -6.5210 c3        1 3AJ     -0.074400
     24 C8         -7.5500   -2.9730   -7.7880 c3        1 3AJ     -0.078400
     25 C9         -9.0530   -3.1420   -7.4850 c3        1 3AJ     -0.053700
     26 C6         -9.1200   -3.1910   -5.9400 c3        1 3AJ     -0.039000
     27 C10        -9.0940   -1.7900   -5.3540 c3        1 3AJ     -0.083100
     28 C1        -10.2690   -3.9980   -5.3560 c3        1 3AJ     -0.067400
     29 C11        -9.8980   -2.0750   -8.1740 c3        1 3AJ     -0.054700
     30 C26       -11.3720   -2.2290   -7.8500 c3        1 3AJ     -0.092100
     31 C12        -9.7040   -2.1450   -9.6880 c3        1 3AJ     -0.079400
     32 C13       -10.0460   -0.8330  -10.3640 c3        1 3AJ     -0.079400
     33 C33        -9.8310   -0.9240  -11.8590 c3        1 3AJ     -0.064400
     34 C34       -10.3270    0.3160  -12.6100 c3        1 3AJ      0.147800
     35 O37       -11.7380    0.3750  -12.3860 oh        1 3AJ     -0.597800
     36 C36        -9.6650    1.5890  -12.0980 c3        1 3AJ     -0.123100
     37 C35       -10.0510    0.1520  -14.1020 c3        1 3AJ     -0.123100
     38 H1          2.3350    0.5320    0.5080 hc        1 3AJ      0.084450
     39 H2          2.1780   -1.1860   -0.1110 hc        1 3AJ      0.084450
     40 H3          0.9150   -0.0780    2.5700 hc        1 3AJ      0.084450
     41 H4          0.7470   -1.7950    1.9510 hc        1 3AJ      0.084450
     42 H5         -0.0190   -2.1900   -0.4710 h1        1 3AJ      0.050700
     43 H6         -0.6790   -0.8010   -1.4800 h1        1 3AJ      0.050700
     44 H7         -1.9900   -3.4530   -0.0270 h1        1 3AJ      0.059700
     45 H8         -4.3950   -1.4770    0.1690 h1        1 3AJ      0.048700
     46 H9         -3.1430   -1.9110    2.0580 ho        1 3AJ      0.420000
     47 H10        -5.7940   -3.5280    0.4390 hc        1 3AJ      0.066700
     48 H11        -4.3470   -4.5920    0.2310 hc        1 3AJ      0.066700
     49 H12        -1.6940   -2.7590   -2.3340 h1        1 3AJ      0.072700
     50 H13        -3.8000   -0.9270   -1.9480 ho        1 3AJ      0.410000
     51 H14        -4.1880   -5.0780   -3.7230 ha        1 3AJ      0.121000
     52 H15        -2.5250   -4.2760   -3.9330 ha        1 3AJ      0.121000
     53 H16        -7.0760   -3.7110   -1.4530 ha        1 3AJ      0.126000
     54 H17        -5.6510   -3.1960   -4.1580 ha        1 3AJ      0.135000
     55 H18        -8.6450   -4.6040   -2.3270 hc        1 3AJ      0.047700
     56 H19        -8.6840   -5.8000   -3.6800 hc        1 3AJ      0.047700
     57 H20       -10.8870   -4.8770   -3.4820 hc        1 3AJ      0.041700
     58 H21       -10.2760   -3.1820   -3.3550 hc        1 3AJ      0.041700
     59 H22        -7.9550   -5.0310   -5.9520 hc        1 3AJ      0.055700
     60 H23        -5.9400   -4.0470   -6.7400 hc        1 3AJ      0.045200
     61 H24        -6.3290   -2.4190   -6.0600 hc        1 3AJ      0.045200
     62 H25        -7.3260   -1.9180   -8.0860 hc        1 3AJ      0.042700
     63 H26        -7.2530   -3.6390   -8.6350 hc        1 3AJ      0.042700
     64 H27        -9.3880   -4.1440   -7.8720 hc        1 3AJ      0.046700
     65 H28       -10.0910   -1.3010   -5.4630 hc        1 3AJ      0.037700
     66 H29        -8.3300   -1.1640   -5.8780 hc        1 3AJ      0.037700
     67 H30        -8.8310   -1.8230   -4.2690 hc        1 3AJ      0.037700
     68 H31       -11.2470   -3.4880   -5.5570 hc        1 3AJ      0.043700
     69 H32       -10.3080   -5.0040   -5.8520 hc        1 3AJ      0.043700
     70 H33        -9.5560   -1.0630   -7.8170 hc        1 3AJ      0.051700
     71 H34       -11.6840   -3.2980   -7.9320 hc        1 3AJ      0.035367
     72 H35       -11.5890   -1.8730   -6.8140 hc        1 3AJ      0.035367
     73 H36       -11.9920   -1.6270   -8.5580 hc        1 3AJ      0.035367
     74 H37        -8.6400   -2.4060   -9.9310 hc        1 3AJ      0.040200
     75 H38       -10.3470   -2.9640  -10.1050 hc        1 3AJ      0.040200
     76 H39        -9.4060   -0.0150   -9.9380 hc        1 3AJ      0.048700
     77 H40       -11.1150   -0.5580  -10.1650 hc        1 3AJ      0.048700
     78 H41       -10.3780   -1.8180  -12.2590 hc        1 3AJ      0.047200
     79 H42        -8.7410   -1.0550  -12.0830 hc        1 3AJ      0.047200
     80 H43       -12.0590    1.1540  -12.8540 ho        1 3AJ      0.397000
     81 H44        -9.9240    2.4520  -12.7580 hc        1 3AJ      0.042367
     82 H45       -10.0210    1.8150  -11.0640 hc        1 3AJ      0.042367
     83 H46        -8.5570    1.4660  -12.0840 hc        1 3AJ      0.042367
     84 H47       -10.4390    1.0340  -14.6660 hc        1 3AJ      0.042367
     85 H48        -8.9540    0.0650  -14.2800 hc        1 3AJ      0.042367
     86 H49       -10.5580   -0.7650  -14.4850 hc        1 3AJ      0.042367
@<TRIPOS>BOND
     1    1    2 3   
     2    2    3 1   
     3    3    4 1   
     4    3    5 1   
     5    3    6 1   
     6    4    5 1   
     7    4   38 1   
     8    4   39 1   
     9    5   40 1   
    10    5   41 1   
    11    6    7 1   
    12    6   42 1   
    13    6   43 1   
    14    7    8 1   
    15    8    9 1   
    16    8   12 1   
    17    8   44 1   
    18    9   10 1   
    19    9   11 1   
    20    9   45 1   
    21   10   46 1   
    22   11   16 1   
    23   11   47 1   
    24   11   48 1   
    25   12   13 1   
    26   12   14 1   
    27   12   49 1   
    28   13   50 1   
    29   14   15 2   
    30   14   16 1   
    31   15   51 1   
    32   15   52 1   
    33   16   17 2   
    34   17   18 1   
    35   17   53 1   
    36   18   19 2   
    37   18   54 1   
    38   19   20 1   
    39   19   22 1   
    40   20   21 1   
    41   20   55 1   
    42   20   56 1   
    43   21   28 1   
    44   21   57 1   
    45   21   58 1   
    46   22   23 1   
    47   22   26 1   
    48   22   59 1   
    49   23   24 1   
    50   23   60 1   
    51   23   61 1   
    52   24   25 1   
    53   24   62 1   
    54   24   63 1   
    55   25   26 1   
    56   25   29 1   
    57   25   64 1   
    58   26   27 1   
    59   26   28 1   
    60   27   65 1   
    61   27   66 1   
    62   27   67 1   
    63   28   68 1   
    64   28   69 1   
    65   29   30 1   
    66   29   31 1   
    67   29   70 1   
    68   30   71 1   
    69   30   72 1   
    70   30   73 1   
    71   31   32 1   
    72   31   74 1   
    73   31   75 1   
    74   32   33 1   
    75   32   76 1   
    76   32   77 1   
    77   33   34 1   
    78   33   78 1   
    79   33   79 1   
    80   34   35 1   
    81   34   36 1   
    82   34   37 1   
    83   35   80 1   
    84   36   81 1   
    85   36   82 1   
    86   36   83 1   
    87   37   84 1   
    88   37   85 1   
    89   37   86 1   
@<TRIPOS>SUBSTRUCTURE
     1 3AJ         1 TEMP              0 ****  ****    0 ROOT
