@<TRIPOS>MOLECULE
3AK
   29    31     1     0     0
SMALL
bcc


@<TRIPOS>ATOM
      1 O11        -0.0890   -0.1900   -0.1310 o         1 3AK     -0.547500
      2 C8          1.1390   -0.1670   -0.0600 c         1 3AK      0.601500
      3 C9          2.0150   -0.1580    1.2210 c         1 3AK      0.530700
      4 O10         1.5830   -0.2140    2.3620 o         1 3AK     -0.450100
      5 C1          3.3960   -0.0740    0.7170 ca        1 3AK     -0.243600
      6 N7          2.0170   -0.1680   -1.1750 n         1 3AK     -0.379000
      7 C6          3.3480   -0.0550   -0.7210 ca        1 3AK      0.105600
      8 C5          4.5290    0.0340   -1.4580 ca        1 3AK     -0.178000
      9 C4          5.7400    0.0930   -0.7580 ca        1 3AK     -0.060000
     10 C3          5.7840    0.0690    0.6340 ca        1 3AK     -0.182000
     11 C2          4.6040   -0.0130    1.3840 ca        1 3AK     -0.017000
     12 C12         1.5970    0.0090   -2.5380 c3        1 3AK      0.148300
     13 C13         1.4380    1.4340   -2.9860 ca        1 3AK     -0.127300
     14 C18         2.3360    1.9930   -3.9000 ca        1 3AK     -0.112500
     15 C17         2.1570    3.3050   -4.3400 ca        1 3AK     -0.131000
     16 C16         1.0870    4.0620   -3.8650 ca        1 3AK     -0.119000
     17 C15         0.1920    3.5070   -2.9490 ca        1 3AK     -0.131000
     18 C14         0.3650    2.1960   -2.5100 ca        1 3AK     -0.112500
     19 H3          4.5160    0.0630   -2.5560 ha        1 3AK      0.145000
     20 H4          6.6790    0.1610   -1.3300 ha        1 3AK      0.138000
     21 H5          6.7530    0.1170    1.1520 ha        1 3AK      0.142000
     22 H6          4.6350   -0.0280    2.4850 ha        1 3AK      0.153000
     23 H7          2.3470   -0.5140   -3.2000 h1        1 3AK      0.072200
     24 H8          0.5990   -0.5120   -2.6420 h1        1 3AK      0.072200
     25 H9          3.1830    1.4000   -4.2740 ha        1 3AK      0.139000
     26 H10         2.8630    3.7410   -5.0610 ha        1 3AK      0.135000
     27 H11         0.9480    5.0970   -4.2120 ha        1 3AK      0.134000
     28 H12        -0.6520    4.1040   -2.5730 ha        1 3AK      0.135000
     29 H13        -0.3390    1.7510   -1.7870 ha        1 3AK      0.139000
@<TRIPOS>BOND
     1    1    2 2   
     2    2    3 1   
     3    2    6 1   
     4    3    4 2   
     5    3    5 1   
     6    5    7 ar  
     7    5   11 ar  
     8    6    7 1   
     9    6   12 1   
    10    7    8 ar  
    11    8    9 ar  
    12    8   19 1   
    13    9   10 ar  
    14    9   20 1   
    15   10   11 ar  
    16   10   21 1   
    17   11   22 1   
    18   12   13 1   
    19   12   23 1   
    20   12   24 1   
    21   13   14 ar  
    22   13   18 ar  
    23   14   15 ar  
    24   14   25 1   
    25   15   16 ar  
    26   15   26 1   
    27   16   17 ar  
    28   16   27 1   
    29   17   18 ar  
    30   17   28 1   
    31   18   29 1   
@<TRIPOS>SUBSTRUCTURE
     1 3AK         1 TEMP              0 ****  ****    0 ROOT
