@<TRIPOS>MOLECULE
3AK
   29    31     1     0     0
SMALL
bcc


@<TRIPOS>ATOM
      1 O11        -0.0840   -0.2150   -0.1410 o         1 3AK     -0.547500
      2 C8          1.1450   -0.1820   -0.0670 c         1 3AK      0.601500
      3 C9          2.0170   -0.1710    1.2160 c         1 3AK      0.530700
      4 O10         1.5820   -0.2330    2.3560 o         1 3AK     -0.450100
      5 C1          3.3980   -0.0740    0.7160 ca        1 3AK     -0.243600
      6 N7          2.0250   -0.1740   -1.1790 n         1 3AK     -0.379000
      7 C6          3.3540   -0.0510   -0.7220 ca        1 3AK      0.105600
      8 C5          4.5360    0.0490   -1.4550 ca        1 3AK     -0.178000
      9 C4          5.7450    0.1160   -0.7520 ca        1 3AK     -0.060000
     10 C3          5.7860    0.0880    0.6400 ca        1 3AK     -0.182000
     11 C2          4.6040   -0.0050    1.3870 ca        1 3AK     -0.017000
     12 C12         1.6080    0.0040   -2.5430 c3        1 3AK      0.148300
     13 C13         1.4390    1.4290   -2.9880 ca        1 3AK     -0.127300
     14 C18         2.3340    1.9970   -3.8990 ca        1 3AK     -0.112500
     15 C17         2.1480    3.3080   -4.3360 ca        1 3AK     -0.131000
     16 C16         1.0710    4.0570   -3.8610 ca        1 3AK     -0.119000
     17 C15         0.1790    3.4930   -2.9480 ca        1 3AK     -0.131000
     18 C14         0.3600    2.1820   -2.5120 ca        1 3AK     -0.112500
     19 H3          4.5260    0.0820   -2.5530 ha        1 3AK      0.145000
     20 H4          6.6840    0.1930   -1.3210 ha        1 3AK      0.138000
     21 H5          6.7530    0.1420    1.1610 ha        1 3AK      0.142000
     22 H6          4.6320   -0.0230    2.4870 ha        1 3AK      0.153000
     23 H7          0.6130   -0.5240   -2.6510 h1        1 3AK      0.072200
     24 H8          2.3630   -0.5120   -3.2040 h1        1 3AK      0.072200
     25 H9          3.1870    1.4100   -4.2730 ha        1 3AK      0.139000
     26 H10         2.8520    3.7510   -5.0550 ha        1 3AK      0.135000
     27 H11         0.9260    5.0910   -4.2060 ha        1 3AK      0.134000
     28 H12        -0.6700    4.0830   -2.5720 ha        1 3AK      0.135000
     29 H13        -0.3420    1.7310   -1.7910 ha        1 3AK      0.139000
@<TRIPOS>BOND
     1    1    2 2   
     2    2    3 1   
     3    2    6 1   
     4    3    4 2   
     5    3    5 1   
     6    5    7 ar  
     7    5   11 ar  
     8    6    7 1   
     9    6   12 1   
    10    7    8 ar  
    11    8    9 ar  
    12    8   19 1   
    13    9   10 ar  
    14    9   20 1   
    15   10   11 ar  
    16   10   21 1   
    17   11   22 1   
    18   12   13 1   
    19   12   23 1   
    20   12   24 1   
    21   13   14 ar  
    22   13   18 ar  
    23   14   15 ar  
    24   14   25 1   
    25   15   16 ar  
    26   15   26 1   
    27   16   17 ar  
    28   16   27 1   
    29   17   18 ar  
    30   17   28 1   
    31   18   29 1   
@<TRIPOS>SUBSTRUCTURE
     1 3AK         1 TEMP              0 ****  ****    0 ROOT
