@<TRIPOS>MOLECULE
3AK
   29    31     1     0     0
SMALL
bcc


@<TRIPOS>ATOM
      1 O11        -0.0740   -0.1930   -0.1020 o         1 3AK     -0.547500
      2 C8          1.1550   -0.1650   -0.0420 c         1 3AK      0.601500
      3 C9          2.0420   -0.1470    1.2320 c         1 3AK      0.530700
      4 O10         1.6190   -0.1990    2.3770 o         1 3AK     -0.450100
      5 C1          3.4180   -0.0600    0.7160 ca        1 3AK     -0.243600
      6 N7          2.0230   -0.1680   -1.1640 n         1 3AK     -0.379000
      7 C6          3.3580   -0.0480   -0.7220 ca        1 3AK      0.105600
      8 C5          4.5320    0.0420   -1.4680 ca        1 3AK     -0.178000
      9 C4          5.7490    0.1090   -0.7790 ca        1 3AK     -0.060000
     10 C3          5.8050    0.0920    0.6120 ca        1 3AK     -0.182000
     11 C2          4.6310    0.0090    1.3730 ca        1 3AK     -0.017000
     12 C12         1.5920    0.0000   -2.5240 c3        1 3AK      0.148300
     13 C13         1.4250    1.4230   -2.9780 ca        1 3AK     -0.127300
     14 C18         2.3120    1.9790   -3.9040 ca        1 3AK     -0.112500
     15 C17         2.1270    3.2880   -4.3490 ca        1 3AK     -0.131000
     16 C16         1.0590    4.0450   -3.8680 ca        1 3AK     -0.119000
     17 C15         0.1750    3.4940   -2.9400 ca        1 3AK     -0.131000
     18 C14         0.3550    2.1850   -2.4960 ca        1 3AK     -0.112500
     19 H3          4.5100    0.0660   -2.5670 ha        1 3AK      0.145000
     20 H4          6.6830    0.1780   -1.3600 ha        1 3AK      0.138000
     21 H5          6.7780    0.1450    1.1220 ha        1 3AK      0.142000
     22 H6          4.6710   -0.0010    2.4730 ha        1 3AK      0.153000
     23 H7          0.5940   -0.5240   -2.6170 h1        1 3AK      0.072200
     24 H8          2.3370   -0.5240   -3.1890 h1        1 3AK      0.072200
     25 H9          3.1570    1.3850   -4.2830 ha        1 3AK      0.139000
     26 H10         2.8250    3.7220   -5.0800 ha        1 3AK      0.135000
     27 H11         0.9150    5.0780   -4.2190 ha        1 3AK      0.134000
     28 H12        -0.6670    4.0900   -2.5590 ha        1 3AK      0.135000
     29 H13        -0.3410    1.7420   -1.7640 ha        1 3AK      0.139000
@<TRIPOS>BOND
     1    1    2 2   
     2    2    3 1   
     3    2    6 1   
     4    3    4 2   
     5    3    5 1   
     6    5    7 ar  
     7    5   11 ar  
     8    6    7 1   
     9    6   12 1   
    10    7    8 ar  
    11    8    9 ar  
    12    8   19 1   
    13    9   10 ar  
    14    9   20 1   
    15   10   11 ar  
    16   10   21 1   
    17   11   22 1   
    18   12   13 1   
    19   12   23 1   
    20   12   24 1   
    21   13   14 ar  
    22   13   18 ar  
    23   14   15 ar  
    24   14   25 1   
    25   15   16 ar  
    26   15   26 1   
    27   16   17 ar  
    28   16   27 1   
    29   17   18 ar  
    30   17   28 1   
    31   18   29 1   
@<TRIPOS>SUBSTRUCTURE
     1 3AK         1 TEMP              0 ****  ****    0 ROOT
