@<TRIPOS>MOLECULE
3AL
   17    17     1     0     0
SMALL
bcc


@<TRIPOS>ATOM
      1 C4          0.0220    0.5510    0.2550 c3        1 3AL      0.170100
      2 C5          1.5360    0.5510    0.2550 c         1 3AL      0.687500
      3 O5          2.2500    0.3900   -0.7140 o         1 3AL     -0.580500
      4 N7          1.9720    0.5510    1.5980 n         1 3AL     -0.604500
      5 C8          0.8210    0.5510    2.4340 c         1 3AL      0.787500
      6 O8          0.8030    0.7880    3.6250 o         1 3AL     -0.595500
      7 N9         -0.3260    0.5510    1.6570 n         1 3AL     -0.518900
      8 N3         -0.5580   -0.5410   -0.4860 n         1 3AL     -0.576900
      9 C2         -1.0400   -0.3280   -1.8030 c         1 3AL      0.751100
     10 N1         -1.6090   -1.4030   -2.5330 n         1 3AL     -0.648000
     11 O2         -0.9640    0.7750   -2.3060 o         1 3AL     -0.642100
     12 H4         -0.3440    1.3250   -0.2130 h2        1 3AL      0.101700
     13 HN7         2.8390    0.5510    1.8810 hn        1 3AL      0.362500
     14 HN9        -1.1780    0.5510    1.9830 hn        1 3AL      0.357500
     15 HN3        -0.6300   -1.3650   -0.1020 hn        1 3AL      0.322500
     16 HN11       -1.8960   -1.2720   -3.3890 hn        1 3AL      0.312500
     17 HN12       -1.6990   -2.2230   -2.1420 hn        1 3AL      0.312500
@<TRIPOS>BOND
     1    1    2 1   
     2    1    7 1   
     3    1    8 1   
     4    1   12 1   
     5    2    3 2   
     6    2    4 1   
     7    4    5 1   
     8    4   13 1   
     9    5    6 2   
    10    5    7 1   
    11    7   14 1   
    12    8    9 1   
    13    8   15 1   
    14    9   10 1   
    15    9   11 2   
    16   10   16 1   
    17   10   17 1   
@<TRIPOS>SUBSTRUCTURE
     1 3AL         1 TEMP              0 ****  ****    0 ROOT
