@<TRIPOS>MOLECULE
3AL
   19    18     1     0     0
SMALL
bcc


@<TRIPOS>ATOM
      1 C4        238.4280  504.7370  555.8480 cc        1 3AL      0.132600
      2 C5        237.5580  503.4900  555.5040 cd        1 3AL      0.373000
      3 O5        236.9810  503.2910  554.4520 o         1 3AL     -0.113000
      4 N7        237.6070  502.6890  556.6670 n         1 3AL     -0.575500
      5 C8        238.3910  503.2890  557.6630 c         1 3AL      0.794500
      6 O8        238.6980  502.9600  558.7930 o         1 3AL     -0.400500
      7 N9        238.8870  504.6050  557.0660 n         1 3AL     -0.313100
      8 N3       -265.4910 -560.5860 -619.9520 n         1 3AL     -0.612000
      9 C2       -265.3600 -560.8160 -618.6230 c         1 3AL      0.650100
     10 N1       -264.8300 -562.1910 -618.1750 n4        1 3AL     -0.755400
     11 O2       -265.6090 -560.0640 -617.6790 o         1 3AL     -0.459100
     12 H4        238.5990  505.5730  555.1390 h4        1 3AL      0.263000
     13 HN7       237.1530  501.8070  556.7900 hn        1 3AL      0.425500
     14 HN9       239.4760  505.2240  557.5960 hn        1 3AL      0.414500
     15 HN3      -265.8370 -559.6860 -620.2230 hn        1 3AL      0.375000
     16 HN11     -263.8870 -562.3580 -618.5340 hn        1 3AL      0.475467
     17 HN12     -264.7990 -562.1780 -617.1440 hn        1 3AL      0.475467
     18 H32      -265.2670 -561.2480 -620.6560 hn        1 3AL      0.375000
     19 H13      -265.4510 -562.9440 -618.4810 hn        1 3AL      0.475467
@<TRIPOS>BOND
     1    1    2 2   
     2    1    7 1   
     3    1   12 1   
     4    2    3 1   
     5    2    4 1   
     6    4    5 1   
     7    4   13 1   
     8    5    6 2   
     9    5    7 1   
    10    7   14 1   
    11    8    9 1   
    12    8   15 1   
    13    8   18 1   
    14    9   10 1   
    15    9   11 2   
    16   10   16 1   
    17   10   17 1   
    18   10   19 1   
@<TRIPOS>SUBSTRUCTURE
     1 3AL         1 TEMP              0 ****  ****    0 ROOT
