@<TRIPOS>MOLECULE
3AL
   19    18     1     0     0
SMALL
bcc


@<TRIPOS>ATOM
      1 C4        235.2090  657.3310  546.7870 cc        1 3AL      0.132600
      2 C5        234.0000  657.7990  545.9200 cd        1 3AL      0.373000
      3 O5        232.9240  658.1770  546.3420 o         1 3AL     -0.113000
      4 N7        234.4490  657.6780  544.5860 n         1 3AL     -0.575500
      5 C8        235.7670  657.2000  544.5370 c         1 3AL      0.794500
      6 O8        236.5300  656.9520  543.6220 o         1 3AL     -0.400500
      7 N9        236.1910  657.0000  545.9900 n         1 3AL     -0.313100
      8 N3       -261.6050 -733.2310 -607.3480 n         1 3AL     -0.612000
      9 C2       -261.2150 -732.1930 -606.5700 c         1 3AL      0.650100
     10 N1       -262.2730 -731.1470 -606.1740 n4        1 3AL     -0.755400
     11 O2       -260.0970 -731.9470 -606.1120 o         1 3AL     -0.459100
     12 H4        235.1870  657.3040  547.8960 h4        1 3AL      0.263000
     13 HN7       233.9190  657.8970  543.7670 hn        1 3AL      0.425500
     14 HN9       237.1100  656.6580  546.2190 hn        1 3AL      0.414500
     15 HN3      -260.9020 -733.9010 -607.5950 hn        1 3AL      0.375000
     16 HN11     -262.6670 -730.6880 -606.9990 hn        1 3AL      0.475467
     17 HN12     -261.7950 -730.4420 -605.5930 hn        1 3AL      0.475467
     18 H32      -262.5310 -733.3610 -607.6790 hn        1 3AL      0.375000
     19 H13      -263.0260 -731.5730 -605.6280 hn        1 3AL      0.475467
@<TRIPOS>BOND
     1    1    2 2   
     2    1    7 1   
     3    1   12 1   
     4    2    3 1   
     5    2    4 1   
     6    4    5 1   
     7    4   13 1   
     8    5    6 2   
     9    5    7 1   
    10    7   14 1   
    11    8    9 1   
    12    8   15 1   
    13    8   18 1   
    14    9   10 1   
    15    9   11 2   
    16   10   16 1   
    17   10   17 1   
    18   10   19 1   
@<TRIPOS>SUBSTRUCTURE
     1 3AL         1 TEMP              0 ****  ****    0 ROOT
