@<TRIPOS>MOLECULE
3AL
   19    18     1     0     0
SMALL
bcc


@<TRIPOS>ATOM
      1 C4        183.2870  364.5240  351.2120 cc        1 3AL      0.132600
      2 C5        183.1990  363.6720  349.9090 cd        1 3AL      0.373000
      3 O5        183.0750  364.1060  348.7790 o         1 3AL     -0.113000
      4 N7        183.2960  362.3340  350.3500 ns        1 3AL     -0.575500
      5 C8        183.4300  362.2690  351.7450 c         1 3AL      0.794500
      6 O8        183.5420  361.3460  352.5300 o         1 3AL     -0.400500
      7 N9        183.4160  363.7160  352.2320 ns        1 3AL     -0.313100
      8 N3       -202.8550 -405.3340 -390.3090 nt        1 3AL     -0.612000
      9 C2       -204.1010 -404.8170 -390.1830 c         1 3AL      0.650100
     10 N1       -205.2530 -405.5130 -390.9300 nz        1 3AL     -0.755400
     11 O2       -204.4680 -403.8340 -389.5370 o         1 3AL     -0.459100
     12 H4        183.2420  365.6320  351.2160 h4        1 3AL      0.263000
     13 HN7       183.2740  361.5210  349.7680 hn        1 3AL      0.425500
     14 HN9       183.5000  363.9340  353.2110 hn        1 3AL      0.414500
     15 HN3      -202.1190 -404.8680 -389.8150 hn        1 3AL      0.375000
     16 HN11     -206.1120 -404.9830 -390.7170 hn        1 3AL      0.475467
     17 HN12     -205.0980 -405.5020 -391.9420 hn        1 3AL      0.475467
     18 H32      -202.6370 -406.1350 -390.8530 hn        1 3AL      0.375000
     19 H13      -205.3690 -406.4780 -390.6130 hn        1 3AL      0.475467
@<TRIPOS>BOND
     1    1    2 2   
     2    1    7 1   
     3    1   12 1   
     4    2    3 1   
     5    2    4 1   
     6    4    5 1   
     7    4   13 1   
     8    5    6 2   
     9    5    7 1   
    10    7   14 1   
    11    8    9 1   
    12    8   15 1   
    13    8   18 1   
    14    9   10 1   
    15    9   11 2   
    16   10   16 1   
    17   10   17 1   
    18   10   19 1   
@<TRIPOS>SUBSTRUCTURE
     1 3AL         1 TEMP              0 ****  ****    0 ROOT
