@<TRIPOS>MOLECULE
3AL
   17    17     1     0     0
SMALL
bcc


@<TRIPOS>ATOM
      1 C4         -0.0370   -0.3370   -0.4790 c3        1 3AL      0.188100
      2 C5          1.0800   -1.3170    0.0630 c         1 3AL      0.682500
      3 O5          0.9660   -2.5290    0.2350 o         1 3AL     -0.562500
      4 N7          2.2090   -0.5360    0.3160 n         1 3AL     -0.612500
      5 C8          1.9780    0.8270   -0.0550 c         1 3AL      0.796500
      6 O8          2.8140    1.7340    0.0740 o         1 3AL     -0.603500
      7 N9          0.6940    0.9320   -0.6230 n         1 3AL     -0.573900
      8 N3         -1.1910   -0.3700    0.3950 n         1 3AL     -0.567900
      9 C2         -2.2360    0.5500    0.1540 c         1 3AL      0.747100
     10 N1         -3.3200    0.5940    1.0320 n         1 3AL     -0.641000
     11 O2         -2.1860    1.3310   -0.8280 o         1 3AL     -0.638100
     12 H4         -0.3770   -0.6590   -1.5110 h2        1 3AL      0.125700
     13 HN7         3.0970   -0.8720    0.5900 hn        1 3AL      0.361500
     14 HN9         0.2170    1.7990   -0.6870 hn        1 3AL      0.361500
     15 HN3        -1.0360   -0.6740    1.3290 hn        1 3AL      0.312500
     16 HN11       -3.5180   -0.1880    1.6060 hn        1 3AL      0.312000
     17 HN12       -4.1000    1.1150    0.7030 hn        1 3AL      0.312000
@<TRIPOS>BOND
     1    1    2 1   
     2    1    7 1   
     3    1    8 1   
     4    1   12 1   
     5    2    3 2   
     6    2    4 1   
     7    4    5 1   
     8    4   13 1   
     9    5    6 2   
    10    5    7 1   
    11    7   14 1   
    12    8    9 1   
    13    8   15 1   
    14    9   10 1   
    15    9   11 2   
    16   10   16 1   
    17   10   17 1   
@<TRIPOS>SUBSTRUCTURE
     1 3AL         1 TEMP              0 ****  ****    0 ROOT
