@<TRIPOS>MOLECULE
3AM
   35    37     1     0     0
SMALL
bcc


@<TRIPOS>ATOM
      1 O1P        -4.0200   -1.7900   -0.9910 o         1 3AM     -0.917500
      2 P          -4.1590   -0.3000   -1.1810 p5        1 3AM      1.322900
      3 O2P        -3.3960    0.2470   -2.3510 o         1 3AM     -0.917500
      4 O3P        -5.4530    0.3430   -0.8040 o         1 3AM     -0.917500
      5 O2'        -1.3360    2.0660    0.8170 oh        1 3AM     -0.636800
      6 C2'        -0.8060    0.9870    0.0850 c3        1 3AM      0.090100
      7 C3'        -1.7980   -0.2040   -0.0960 c3        1 3AM      0.193100
      8 O3'        -3.0750    0.2050    0.1300 os        1 3AM     -0.539200
      9 C1'         0.3700    0.3980    0.9270 c3        1 3AM      0.217800
     10 O4'        -0.0990   -0.7840    1.5590 os        1 3AM     -0.434600
     11 C4'        -1.3250   -1.2510    0.9510 c3        1 3AM      0.046100
     12 C5'        -1.0770   -2.6400    0.3610 c3        1 3AM      0.161400
     13 O5'        -2.2050   -3.4660    0.4810 oh        1 3AM     -0.669800
     14 N9          1.5460    0.1000    0.1090 na        1 3AM     -0.244000
     15 C8          1.5500   -0.5330   -1.1530 cc        1 3AM      0.447700
     16 N7          2.7810   -0.7280   -1.6640 nd        1 3AM     -0.595100
     17 C5          3.6560   -0.2140   -0.6980 ca        1 3AM     -0.208200
     18 C6          5.0780   -0.1030   -0.6380 ca        1 3AM      0.695200
     19 N6          5.8620   -0.6640   -1.6480 nh        1 3AM     -0.929500
     20 C4          2.8880    0.3080    0.4390 ca        1 3AM      0.444800
     21 N3          3.4810    0.8910    1.5280 nb        1 3AM     -0.701000
     22 C2          4.8250    0.9370    1.4340 ca        1 3AM      0.641900
     23 N1          5.6590    0.5020    0.4450 nb        1 3AM     -0.804000
     24 HO2'       -2.2920    1.9010    0.9170 ho        1 3AM      0.459000
     25 H3'        -1.6810   -0.6180   -1.1420 h1        1 3AM      0.073700
     26 H1'         0.6990    1.0920    1.7530 h2        1 3AM      0.099700
     27 H4'        -2.0700   -1.3180    1.7890 h1        1 3AM      0.088700
     28 H5'        -0.7640   -2.5570   -0.7150 h1        1 3AM      0.009700
     29 H5'A       -0.2610   -3.1580    0.9370 h1        1 3AM      0.009700
     30 HO5'       -2.9510   -3.0230    0.0130 ho        1 3AM      0.502000
     31 H8          0.5970   -0.8150   -1.6350 h5        1 3AM      0.109800
     32 HN6         5.3760   -0.8180   -2.5030 hn        1 3AM      0.405800
     33 HN6A        6.7810   -0.2980   -1.7480 hn        1 3AM      0.405800
     34 H2          5.3430    1.4070    2.2950 h5        1 3AM      0.029100
     35 H2'        -0.4690    1.3860   -0.9060 h1        1 3AM      0.059700
@<TRIPOS>BOND
     1    1    2 1   
     2    2    3 1   
     3    2    4 1   
     4    2    8 1   
     5    5    6 1   
     6    5   24 1   
     7    6    7 1   
     8    6    9 1   
     9    6   35 1   
    10    7    8 1   
    11    7   11 1   
    12    7   25 1   
    13    9   10 1   
    14    9   14 1   
    15    9   26 1   
    16   10   11 1   
    17   11   12 1   
    18   11   27 1   
    19   12   13 1   
    20   12   28 1   
    21   12   29 1   
    22   13   30 1   
    23   14   15 1   
    24   14   20 1   
    25   15   16 2   
    26   15   31 1   
    27   16   17 1   
    28   17   18 ar  
    29   17   20 ar  
    30   18   19 1   
    31   18   23 ar  
    32   19   32 1   
    33   19   33 1   
    34   20   21 ar  
    35   21   22 ar  
    36   22   23 ar  
    37   22   34 1   
@<TRIPOS>SUBSTRUCTURE
     1 3AM         1 TEMP              0 ****  ****    0 ROOT
