@<TRIPOS>MOLECULE
3AM
   35    37     1     0     0
SMALL
bcc


@<TRIPOS>ATOM
      1 O1P        -0.5070    1.4370    1.1730 o         1 3AM     -0.910833
      2 P           0.4490    0.3500    0.7700 p5        1 3AM      1.309900
      3 O2P         1.6700    0.1990    1.6450 o         1 3AM     -0.910833
      4 O3P        -0.1260   -0.8810    0.1470 o         1 3AM     -0.910833
      5 O2'         3.7530    1.6330    0.3920 oh        1 3AM     -0.659800
      6 C2'         2.9760    2.7670    0.1380 c3        1 3AM      0.114100
      7 C3'         1.5300    2.4600   -0.3730 c3        1 3AM      0.185100
      8 O3'         1.3120    1.1310   -0.5540 os        1 3AM     -0.537200
      9 C1'         3.6730    3.5600   -1.0130 c3        1 3AM      0.221800
     10 O4'         2.7600    3.6710   -2.1020 os        1 3AM     -0.449600
     11 C4'         1.4490    3.2040   -1.7330 c3        1 3AM      0.060100
     12 C5'         0.4990    4.3940   -1.6840 c3        1 3AM      0.116400
     13 O5'         0.4940    5.1360   -2.8940 oh        1 3AM     -0.634800
     14 N9          4.1090    4.9000   -0.6150 na        1 3AM     -0.234000
     15 C8          3.4090    5.8110    0.2010 cc        1 3AM      0.437700
     16 N7          4.0300    6.9950    0.3680 nd        1 3AM     -0.597100
     17 C5          5.2060    6.8890   -0.3840 ca        1 3AM     -0.211200
     18 C6          6.2960    7.7830   -0.6130 ca        1 3AM      0.694200
     19 N6          6.2490    9.0820   -0.1000 nh        1 3AM     -0.928500
     20 C4          5.2670    5.5690   -1.0240 ca        1 3AM      0.446800
     21 N3          6.3160    5.1780   -1.8140 nb        1 3AM     -0.692000
     22 C2          7.2720    6.1210   -1.9260 ca        1 3AM      0.642900
     23 N1          7.3490    7.3730   -1.3850 nb        1 3AM     -0.803000
     24 HO2'        3.1150    0.9100    0.6660 ho        1 3AM      0.514000
     25 H3'         0.7820    2.8920    0.3600 h1        1 3AM      0.087700
     26 H1'         4.5800    3.0160   -1.4070 h2        1 3AM      0.110700
     27 H4'         1.1550    2.4930   -2.5520 h1        1 3AM      0.092700
     28 H5'        -0.5540    4.0340   -1.5420 h1        1 3AM      0.045200
     29 H5'A        0.7780    5.0850   -0.8420 h1        1 3AM      0.045200
     30 HO5'        1.4090    5.1820   -3.1960 ho        1 3AM      0.402000
     31 H8          2.4440    5.5320    0.6520 h5        1 3AM      0.093800
     32 HN6         5.6270    9.1910    0.6690 hn        1 3AM      0.404300
     33 HN6A        7.1230    9.5450    0.0020 hn        1 3AM      0.404300
     34 H2          8.1420    5.8410   -2.5550 h5        1 3AM      0.031100
     35 H2'         2.9220    3.3800    1.0800 h1        1 3AM      0.019700
@<TRIPOS>BOND
     1    1    2 1   
     2    2    3 1   
     3    2    4 1   
     4    2    8 1   
     5    5    6 1   
     6    5   24 1   
     7    6    7 1   
     8    6    9 1   
     9    6   35 1   
    10    7    8 1   
    11    7   11 1   
    12    7   25 1   
    13    9   10 1   
    14    9   14 1   
    15    9   26 1   
    16   10   11 1   
    17   11   12 1   
    18   11   27 1   
    19   12   13 1   
    20   12   28 1   
    21   12   29 1   
    22   13   30 1   
    23   14   15 1   
    24   14   20 1   
    25   15   16 2   
    26   15   31 1   
    27   16   17 1   
    28   17   18 ar  
    29   17   20 ar  
    30   18   19 1   
    31   18   23 ar  
    32   19   32 1   
    33   19   33 1   
    34   20   21 ar  
    35   21   22 ar  
    36   22   23 ar  
    37   22   34 1   
@<TRIPOS>SUBSTRUCTURE
     1 3AM         1 TEMP              0 ****  ****    0 ROOT
