@<TRIPOS>MOLECULE
3AM
   35    37     1     0     0
SMALL
bcc


@<TRIPOS>ATOM
      1 O1P        -0.4800    1.3940    1.1710 o         1 3AM     -0.910833
      2 P           0.4760    0.3150    0.7430 p5        1 3AM      1.309900
      3 O2P         1.7060    0.1570    1.6030 o         1 3AM     -0.910833
      4 O3P        -0.1020   -0.9090    0.1110 o         1 3AM     -0.910833
      5 O2'         3.7710    1.6140    0.3480 oh        1 3AM     -0.659800
      6 C2'         2.9880    2.7490    0.1170 c3        1 3AM      0.114100
      7 C3'         1.5380    2.4440   -0.3830 c3        1 3AM      0.185100
      8 O3'         1.3220    1.1170   -0.5800 os        1 3AM     -0.537200
      9 C1'         3.6700    3.5600   -1.0290 c3        1 3AM      0.221800
     10 O4'         2.7470    3.6830   -2.1080 os        1 3AM     -0.449600
     11 C4'         1.4410    3.2050   -1.7320 c3        1 3AM      0.060100
     12 C5'         0.4870    4.3910   -1.6580 c3        1 3AM      0.116400
     13 O5'         0.4670    5.1480   -2.8580 oh        1 3AM     -0.634800
     14 N9          4.1050    4.8970   -0.6180 na        1 3AM     -0.234000
     15 C8          3.4090    5.7940    0.2170 cc        1 3AM      0.437700
     16 N7          4.0280    6.9780    0.3950 nd        1 3AM     -0.597100
     17 C5          5.1960    6.8870   -0.3710 ca        1 3AM     -0.211200
     18 C6          6.2810    7.7880   -0.5990 ca        1 3AM      0.694200
     19 N6          6.2330    9.0800   -0.0680 nv        1 3AM     -0.928500
     20 C4          5.2570    5.5750   -1.0290 ca        1 3AM      0.446800
     21 N3          6.2990    5.2000   -1.8350 nb        1 3AM     -0.692000
     22 C2          7.2500    6.1480   -1.9440 ca        1 3AM      0.642900
     23 N1          7.3270    7.3930   -1.3860 nb        1 3AM     -0.803000
     24 HO2'        3.1380    0.8850    0.6190 ho        1 3AM      0.514000
     25 H3'         0.7960    2.8640    0.3630 h1        1 3AM      0.087700
     26 H1'         4.5750    3.0250   -1.4400 h2        1 3AM      0.110700
     27 H4'         1.1410    2.5040   -2.5570 h1        1 3AM      0.092700
     28 H5'        -0.5630    4.0250   -1.5110 h1        1 3AM      0.045200
     29 H5'A        0.7720    5.0720   -0.8100 h1        1 3AM      0.045200
     30 HO5'        1.3790    5.2020   -3.1680 ho        1 3AM      0.402000
     31 H8          2.4500    5.5050    0.6740 h5        1 3AM      0.093800
     32 HN6         7.1060    9.5450    0.0310 hn        1 3AM      0.404300
     33 HN6A        5.6180    9.1770    0.7080 hn        1 3AM      0.404300
     34 H2          8.1150    5.8800   -2.5850 h5        1 3AM      0.031100
     35 H2'         2.9410    3.3490    1.0680 h1        1 3AM      0.019700
@<TRIPOS>BOND
     1    1    2 1   
     2    2    3 1   
     3    2    4 1   
     4    2    8 1   
     5    5    6 1   
     6    5   24 1   
     7    6    7 1   
     8    6    9 1   
     9    6   35 1   
    10    7    8 1   
    11    7   11 1   
    12    7   25 1   
    13    9   10 1   
    14    9   14 1   
    15    9   26 1   
    16   10   11 1   
    17   11   12 1   
    18   11   27 1   
    19   12   13 1   
    20   12   28 1   
    21   12   29 1   
    22   13   30 1   
    23   14   15 1   
    24   14   20 1   
    25   15   16 2   
    26   15   31 1   
    27   16   17 1   
    28   17   18 ar  
    29   17   20 ar  
    30   18   19 1   
    31   18   23 ar  
    32   19   32 1   
    33   19   33 1   
    34   20   21 ar  
    35   21   22 ar  
    36   22   23 ar  
    37   22   34 1   
@<TRIPOS>SUBSTRUCTURE
     1 3AM         1 TEMP              0 ****  ****    0 ROOT
