@<TRIPOS>MOLECULE
3AM
   35    32     1     0     0
SMALL
bcc


@<TRIPOS>ATOM
      1 O1P        -1.7880   -4.0870    1.7890 o         1 3AM     -0.927500
      2 P          -1.6640   -4.3480    0.3070 p4        1 3AM      1.691200
      3 O2P        -0.7260   -5.5090    0.0780 os        1 3AM     -1.217000
      4 O3P        -3.0230   -4.6800   -0.2610 o         1 3AM     -0.976300
      5 O2'         1.0880   -2.0830    0.5120 oh        1 3AM     -0.636800
      6 C2'        -0.0620   -1.1360    0.5380 c3        1 3AM      0.090100
      7 C3'        -1.3780   -1.8700    0.1080 c3        1 3AM      0.193100
      8 O3'        -1.0940   -3.0600   -0.4090 os        1 3AM     -0.539200
      9 C1'         0.1040   -0.2150   -0.3320 c3        1 3AM      0.217800
     10 O4'        -1.3960    0.1560   -0.8990 os        1 3AM     -0.434600
     11 C4'        -2.0350   -0.9570   -0.9680 c3        1 3AM      0.046100
     12 C5'        -3.5240   -0.7370   -0.6450 c3        1 3AM      0.161400
     13 O5'        -4.0870    0.1400   -1.5950 oh        1 3AM     -0.669800
     14 N9          0.6900    0.9190    0.2670 n3        1 3AM     -0.087400
     15 C8          0.1120    1.7590    1.1540 c1        1 3AM      0.212400
     16 N7          0.9080    2.8450    1.2810 ne        1 3AM     -0.440400
     17 C5          1.9850    2.6750    0.4680 cg        1 3AM     -0.165000
     18 C6          3.0930    3.4690    0.2150 c1        1 3AM      0.555600
     19 N6          3.5390    4.6540    0.8540 n3        1 3AM     -0.792400
     20 C4          1.8500    1.4880   -0.1570 c1        1 3AM     -0.001300
     21 N3          2.8040    1.0700   -1.0370 n1        1 3AM     -0.500800
     22 C2          3.8930    1.8530   -1.2850 c1        1 3AM      0.362300
     23 N1          4.0300    3.0550   -0.6530 n1        1 3AM     -0.603800
     24 HO2'        1.4030   -2.1890    1.3370 ho        1 3AM      0.459000
     25 H2'        -0.1640   -0.7480    1.4300 h1        1 3AM      0.059700
     26 H3'        -1.9750   -1.9690    0.8760 h1        1 3AM      0.073700
     27 H1'         0.6700   -0.5400   -1.0630 h2        1 3AM      0.099700
     28 H4'        -1.9340   -1.3520   -1.8570 h1        1 3AM      0.088700
     29 H5'        -3.9940   -1.5960   -0.6750 h1        1 3AM      0.009700
     30 H5'A       -3.6100   -0.3490    0.2500 h1        1 3AM      0.009700
     31 HO5'       -4.9730    0.1270   -1.5220 ho        1 3AM      0.502000
     32 H8         -0.7420    1.6180    1.6050 DU        1 3AM      0.239000
     33 HN6         4.3490    5.0160    0.6330 hn        1 3AM      0.405800
     34 HN6A        3.0170    5.0550    1.4890 hn        1 3AM      0.405800
     35 H2          4.6340    1.5270   -1.8320 ha        1 3AM      0.108500
@<TRIPOS>BOND
     1    1    2 1   
     2    2    4 2   
     3    2    8 1   
     4    5    6 1   
     5    5   24 1   
     6    6    7 1   
     7    6    9 1   
     8    6   25 1   
     9    7    8 1   
    10    7   11 1   
    11    7   26 1   
    12    9   10 1   
    13    9   14 1   
    14    9   27 1   
    15   10   11 1   
    16   11   12 1   
    17   11   28 1   
    18   12   13 1   
    19   12   29 1   
    20   12   30 1   
    21   13   31 1   
    22   14   15 2   
    23   14   20 1   
    24   15   16 2   
    25   16   17 1   
    26   17   20 3   
    27   18   19 1   
    28   18   23 3   
    29   19   33 1   
    30   19   34 1   
    31   21   22 3   
    32   22   35 1   
@<TRIPOS>SUBSTRUCTURE
     1 3AM         1 TEMP              0 ****  ****    0 ROOT
