@<TRIPOS>MOLECULE
3AM
   35    37     1     0     0
SMALL
bcc


@<TRIPOS>ATOM
      1 O1P        -0.6960    1.3270    0.1630 o         1 3AM     -0.915500
      2 P           0.4590    0.3590    0.2620 p5        1 3AM      1.311900
      3 O2P         1.3660    0.5200    1.4540 o         1 3AM     -0.915500
      4 O3P         0.2610   -1.0140   -0.2910 o         1 3AM     -0.915500
      5 O2'         3.7570    1.8490    0.4250 oh        1 3AM     -0.645800
      6 C2'         2.9670    2.9360    0.0350 c3        1 3AM      0.114100
      7 C3'         1.6050    2.5140   -0.5850 c3        1 3AM      0.177100
      8 O3'         1.5500    1.1780   -0.8480 os        1 3AM     -0.537200
      9 C1'         3.6950    3.7330   -1.0910 c3        1 3AM      0.223800
     10 O4'         2.7800    3.9380   -2.1710 os        1 3AM     -0.441600
     11 C4'         1.5060    3.3280   -1.8970 c3        1 3AM      0.059100
     12 C5'         0.4180    4.3950   -1.8030 c3        1 3AM      0.147400
     13 O5'        -0.8730    3.8340   -1.7670 oh        1 3AM     -0.652800
     14 N9          4.1800    5.0420   -0.6520 na        1 3AM     -0.227000
     15 C8          3.4400    6.0130    0.0530 cc        1 3AM      0.438700
     16 N7          4.1110    7.1580    0.2870 nd        1 3AM     -0.600100
     17 C5          5.3650    6.9610   -0.3030 ca        1 3AM     -0.210200
     18 C6          6.5330    7.7780   -0.3980 ca        1 3AM      0.692200
     19 N6          6.5070    9.0870    0.0920 nh        1 3AM     -0.927500
     20 C4          5.4210    5.6270   -0.9160 ca        1 3AM      0.448800
     21 N3          6.5340    5.1560   -1.5610 nb        1 3AM     -0.691000
     22 C2          7.5570    6.0340   -1.5590 ca        1 3AM      0.642900
     23 N1          7.6460    7.2870   -1.0230 nb        1 3AM     -0.803000
     24 HO2'        3.1140    1.1180    0.6420 ho        1 3AM      0.503000
     25 H3'         0.7850    2.8280    0.1310 h1        1 3AM      0.082700
     26 H1'         4.5780    3.1660   -1.5040 h2        1 3AM      0.107700
     27 H4'         1.3080    2.6440   -2.7660 h1        1 3AM      0.089700
     28 H5'         0.5830    5.0320   -0.8900 h1        1 3AM      0.003700
     29 H5'A        0.4340    5.0580   -2.7090 h1        1 3AM      0.003700
     30 HO5'       -0.8650    3.0510   -1.1710 ho        1 3AM      0.490000
     31 H8          2.4060    5.8050    0.3680 h5        1 3AM      0.089800
     32 HN6         5.8030    9.2460    0.7780 hn        1 3AM      0.403300
     33 HN6A        7.3910    9.4910    0.3050 hn        1 3AM      0.403300
     34 H2          8.4800    5.6870   -2.0680 h5        1 3AM      0.032100
     35 H2'         2.7930    3.5890    0.9360 h1        1 3AM      0.018700
@<TRIPOS>BOND
     1    1    2 1   
     2    2    3 1   
     3    2    4 1   
     4    2    8 1   
     5    5    6 1   
     6    5   24 1   
     7    6    7 1   
     8    6    9 1   
     9    6   35 1   
    10    7    8 1   
    11    7   11 1   
    12    7   25 1   
    13    9   10 1   
    14    9   14 1   
    15    9   26 1   
    16   10   11 1   
    17   11   12 1   
    18   11   27 1   
    19   12   13 1   
    20   12   28 1   
    21   12   29 1   
    22   13   30 1   
    23   14   15 1   
    24   14   20 1   
    25   15   16 2   
    26   15   31 1   
    27   16   17 1   
    28   17   18 ar  
    29   17   20 ar  
    30   18   19 1   
    31   18   23 ar  
    32   19   32 1   
    33   19   33 1   
    34   20   21 ar  
    35   21   22 ar  
    36   22   23 ar  
    37   22   34 1   
@<TRIPOS>SUBSTRUCTURE
     1 3AM         1 TEMP              0 ****  ****    0 ROOT
