@<TRIPOS>MOLECULE
3AN
   41    43     1     0     0
SMALL
bcc


@<TRIPOS>ATOM
      1 PB          0.0000    0.0000    0.0000 p5        1 3AN      0.823900
      2 O1B         1.6100    0.0000    0.0000 o         1 3AN     -0.525833
      3 O2B        -0.5370    0.0000    1.5170 o         1 3AN     -0.525833
      4 O3B        -0.4930   -1.2070   -0.6990 o         1 3AN     -0.525833
      5 PA         -2.1430    1.2510   -0.7220 p5        1 3AN      0.892800
      6 O1A        -2.6450   -0.0840   -1.4690 o         1 3AN     -0.667000
      7 O2A        -2.6040    1.2320    0.6840 o         1 3AN     -0.667000
      8 O3A        -0.5360    1.3150   -0.7590 os        1 3AN     -0.461800
      9 O5'        -2.7500    2.5420   -1.4690 os        1 3AN     -0.463200
     10 C5'        -4.1720    2.4280   -1.4020 c3        1 3AN      0.244400
     11 C4'        -4.8140    3.6290   -2.0950 c3        1 3AN      0.171100
     12 O4'        -4.4370    3.6650   -3.4920 os        1 3AN     -0.350600
     13 C3'        -6.3520    3.4950   -2.1090 c3        1 3AN     -0.078500
     14 N3'        -6.9480    4.2810   -1.0200 nz        1 3AN     -0.316600
     15 C2'        -6.7710    4.0680   -3.4810 c3        1 3AN      0.132100
     16 O2'        -7.6240    5.2020   -3.3110 oh        1 3AN     -0.592800
     17 C1'        -5.4370    4.4840   -4.1370 c3        1 3AN      0.132800
     18 N9         -5.4690    4.2130   -5.5760 na        1 3AN      0.207000
     19 C8         -5.0850    3.0570   -6.1880 cc        1 3AN      0.234700
     20 N7         -5.2460    3.1610   -7.4760 nd        1 3AN     -0.522100
     21 C5         -5.7430    4.3860   -7.7700 ca        1 3AN     -0.196200
     22 C6         -6.1080    5.0450   -8.9570 ca        1 3AN      0.508200
     23 N6         -5.9850    4.4160  -10.1830 nv        1 3AN     -0.600500
     24 N1         -6.5760    6.2860   -8.8740 nb        1 3AN     -0.678000
     25 C2         -6.6980    6.8940   -7.7080 ca        1 3AN      0.564900
     26 N3         -6.3680    6.3160   -6.5730 nb        1 3AN     -0.656000
     27 C4         -5.8970    5.0740   -6.5550 ca        1 3AN      0.235800
     28 H5'1       -4.4850    1.5160   -1.8970 h1        1 3AN      0.015700
     29 H5'2       -4.4840    2.4000   -0.3650 h1        1 3AN      0.015700
     30 HC'4       -4.5240    4.5510   -1.6070 h1        1 3AN      0.012700
     31 HC'3       -6.6390    2.4540   -2.0320 hx        1 3AN      0.068700
     32 H3'1       -6.3950    4.1760   -0.1920 hn        1 3AN      0.182133
     33 H3'2       -6.9750    5.2470   -1.2810 hn        1 3AN      0.182133
     34 HC'2       -7.2600    3.3040   -4.0740 h1        1 3AN      0.022700
     35 HO'2       -8.4710    5.0170   -3.6820 ho        1 3AN      0.390000
     36 HC'1       -5.2390    5.5330   -3.9500 h2        1 3AN      0.052700
     37 HC8        -4.7020    2.1820   -5.6780 h5        1 3AN      0.057800
     38 HN61       -6.7990    4.2280  -10.7330 hn        1 3AN      0.260300
     39 HN62       -5.0790    4.1700  -10.5300 hn        1 3AN      0.260300
     40 HC2        -7.0840    7.9060   -7.6850 h5        1 3AN     -0.020900
     41 H3'3       -7.8780    3.9570   -0.8440 hn        1 3AN      0.182133
@<TRIPOS>BOND
     1    1    2 1   
     2    1    3 1   
     3    1    4 1   
     4    1    8 1   
     5    5    6 1   
     6    5    7 1   
     7    5    8 1   
     8    5    9 1   
     9    9   10 1   
    10   10   11 1   
    11   10   28 1   
    12   10   29 1   
    13   11   12 1   
    14   11   13 1   
    15   11   30 1   
    16   12   17 1   
    17   13   14 1   
    18   13   15 1   
    19   13   31 1   
    20   14   32 1   
    21   14   33 1   
    22   14   41 1   
    23   15   16 1   
    24   15   17 1   
    25   15   34 1   
    26   16   35 1   
    27   17   18 1   
    28   17   36 1   
    29   18   19 1   
    30   18   27 1   
    31   19   20 2   
    32   19   37 1   
    33   20   21 1   
    34   21   22 ar  
    35   21   27 ar  
    36   22   23 1   
    37   22   24 ar  
    38   23   38 1   
    39   23   39 1   
    40   24   25 ar  
    41   25   26 ar  
    42   25   40 1   
    43   26   27 ar  
@<TRIPOS>SUBSTRUCTURE
     1 3AN         1 TEMP              0 ****  ****    0 ROOT
