@<TRIPOS>MOLECULE
3AO
   19    16     1     0     0
SMALL
bcc


@<TRIPOS>ATOM
      1 CAA         0.3870   -0.1490    0.1040 c3        1 3AO     -0.199100
      2 OAC         1.6330   -0.2020   -1.9440 o         1 3AO     -0.514100
      3 CAD        -3.5590   -0.0950    2.9490 c1        1 3AO     -0.161500
      4 CAE         7.7090    0.0820    4.8300 c2        1 3AO     -0.344100
      5 CAF        -2.6350   -0.1100    2.1910 c1        1 3AO     -0.161500
      6 CAG         3.8650   -0.1070    0.6930 c1        1 3AO     -0.053500
      7 CAH         1.6450   -0.1650   -0.7090 c         1 3AO      0.598300
      8 CAI         7.5690    0.0200    3.5290 c1        1 3AO      0.278500
      9 CAJ         2.8520   -0.1340    0.0540 cg        1 3AO     -0.220200
     10 HAA         0.3530    0.7780    0.7280 hc        1 3AO      0.067700
     11 HAAA        0.3660   -1.0380    0.7820 hc        1 3AO      0.067700
     12 HAAB       -0.5090   -0.1760   -0.5640 hc        1 3AO      0.067700
     13 HNAB        4.7630   -0.0840    1.2640 ha        1 3AO      0.186500
     14 HNAA        8.0100   -0.0680    1.6520 hn        1 3AO      0.431400
     15 HAD         7.7630   -0.8240    5.4460 ha        1 3AO      0.154000
     16 HAE        -4.3800   -0.0820    3.6210 ha        1 3AO      0.160500
     17 HAF         7.7610    1.0420    5.3580 ha        1 3AO      0.154000
     18 HAG        -1.8140   -0.1230    1.5170 ha        1 3AO      0.160500
     19 NAB         7.2750   -0.0370    2.3280 n2        1 3AO     -0.671800
@<TRIPOS>BOND
     1    1    7 1   
     2    1   10 1   
     3    1   11 1   
     4    1   12 1   
     5    2    7 2   
     6    3    5 3   
     7    3   16 1   
     8    4    8 2   
     9    4   15 1   
    10    4   17 1   
    11    5   18 1   
    12    6    9 3   
    13    6   13 1   
    14    7    9 1   
    15    8   19 2   
    16   14   19 1   
@<TRIPOS>SUBSTRUCTURE
     1 3AO         1 TEMP              0 ****  ****    0 ROOT
